Info: SIMULATION PARAMETERS:
Info: TIMESTEP               0.5
Info: NUMBER OF STEPS        0
Info: STEPS PER CYCLE        1
Info: PERIODIC CELL BASIS 1  78.0108 0 0
Info: PERIODIC CELL BASIS 2  0 78.0108 0
Info: PERIODIC CELL BASIS 3  0 0 78.0108
Info: PERIODIC CELL CENTER   0 0 0
Info: FIRST LDB TIMESTEP     1
Info: LAST LDB TIMESTEP     -1
Info: HOM BACKGROUND SCALING 1
Info: PME BACKGROUND SCALING 1
Info: MIN ATOMS PER PATCH    40
Info: INITIAL TEMPERATURE    300
Info: CENTER OF MASS MOVING INITIALLY? NO
Info: DIELECTRIC             1
Info: EXCLUDE                SCALED ONE-FOUR
Info: 1-4 ELECTROSTATICS SCALED BY 1
Info: MODIFIED 1-4 VDW PARAMETERS WILL BE USED
Info: NO DCD TRAJECTORY OUTPUT
Info: NO EXTENDED SYSTEM TRAJECTORY OUTPUT
Info: NO VELOCITY DCD OUTPUT
Info: NO FORCE DCD OUTPUT
Info: OUTPUT FILENAME        ./output/15/decarb.job0000
Info: BINARY OUTPUT FILES WILL BE USED
Info: RESTART FILENAME       ./output/15/decarb.job0000.restart
Info: RESTART FREQUENCY      100
Info: BINARY RESTART FILES WILL BE USED
Info: SWITCHING ACTIVE
Info: SWITCHING ON           12
Info: SWITCHING OFF          14
Info: PAIRLIST DISTANCE      15
Info: PAIRLIST SHRINK RATE   0.01
Info: PAIRLIST GROW RATE     0.01
Info: PAIRLIST TRIGGER       0.3
Info: PAIRLISTS PER CYCLE    2
Info: PAIRLISTS ENABLED
Info: MARGIN                 0
Info: HYDROGEN GROUP CUTOFF  2.5
Info: PATCH DIMENSION        17.5
Info: ENERGY OUTPUT STEPS    100
Info: CROSSTERM ENERGY INCLUDED IN DIHEDRAL
Info: TIMING OUTPUT STEPS    100
Info: QM FORCES ACTIVE
Info: QM SOFTWARE: mopac
Info: QM ATOM CHARGES FROM QM SOFTWARE: MULLIKEN
Info: QM EXECUTABLE PATH: /home/melomcr/Projects_melomcr/Programs/MOPAC_GPU/MOPAC2016.exe
Info: QM COLUMN: beta
Info: QM BOND COLUMN: occ
Info: QM WILL DETECT BONDS BETWEEN QM AND MM ATOMS.
Info: QM-MM BOND SCHEME: Charge Shift.
Info: QM Will use PSF charges.
Info: QM BASE DIRECTORY: /dev/shm/NAMD_SM_qmmm
Info: QM CONFIG LINE: PM7 XYZ T=2M 1SCF AUX LET GRAD QMMM THREADS=2
Info: QM CONFIG LINE: decarboxylase
Info: QM POINT CHARGES WILL BE SELECTED EVERY 1 STEPS.
Info: QM Point Charge Switching: ON.
Info: QM Point Charge SCHEME: none.
Info: QM executions per node: 1
Info: COLLECTIVE VARIABLES CALCULATION REQUESTED
Info: COLLECTIVE VARIABLES CONFIGURATION   ./setup/colvars_15.conf
Info: LANGEVIN DYNAMICS ACTIVE
Info: LANGEVIN TEMPERATURE   300
Info: LANGEVIN USING BBK INTEGRATOR
Info: LANGEVIN DAMPING COEFFICIENT IS 200 INVERSE PS
Info: LANGEVIN DYNAMICS APPLIED TO HYDROGENS
Info: PARTICLE MESH EWALD (PME) ACTIVE
Info: PME TOLERANCE               1e-05
Info: PME EWALD COEFFICIENT       0.192342
Info: PME INTERPOLATION ORDER     4
Info: PME GRID DIMENSIONS         80 80 80
Info: PME MAXIMUM GRID SPACING    1
Info: FULL ELECTROSTATIC EVALUATION FREQUENCY      1
Info: USING VERLET I (r-RESPA) MTS SCHEME.
Info: C1 SPLITTING OF LONG RANGE ELECTROSTATICS
Info: PLACING ATOMS IN PATCHES BY HYDROGEN GROUPS
Info: RANDOM NUMBER SEED     73500
Info: USE HYDROGEN BONDS?    NO
Info: COORDINATE PDB         decarboxylase.0.pdb
Info: STRUCTURE FILE         decarboxylase.0.psf
Info: PARAMETER file: CHARMM format!
Info: PARAMETERS             ./toppar/par_all36_prot.prm
Info: PARAMETERS             ./toppar/par_all36_cgenff.prm
Info: PARAMETERS             ./toppar/par_all36_na.prm
Info: PARAMETERS             ./toppar/par_all36_carb.prm
Info: PARAMETERS             ./toppar/par_all36_lipid.prm
Info: PARAMETERS             ./toppar/toppar_water_ions_namd.str
Info: PARAMETERS             ./toppar/ligand.str
Info: USING ARITHMETIC MEAN TO COMBINE L-J SIGMA PARAMETERS
Info: BINARY COORDINATES     ./setup/image_15.coor
Info: SKIPPING rtf SECTION IN STREAM FILE
Info: SKIPPING rtf SECTION IN STREAM FILE
Info: SUMMARY OF PARAMETERS:
Info: 912 BONDS
Info: 2656 ANGLES
Info: 6453 DIHEDRAL
Info: 190 IMPROPER
Info: 6 CROSSTERM
Info: 350 VDW
Info: 6 VDW_PAIRS
Info: 0 NBTHOLE_PAIRS
Info: Using the following PDB file for QM parameters: decarboxylase.0.pdb
Info: Number of QM atoms (excluding Dummy atoms): 35
Info: We found 2 QM-MM bonds.
Info: 1) Group ID: 1 ; Group size: 35 atoms ; Total PSF charge: -1
Info: MM-QM pair: 1005:1007 -> Value (distance or ratio): 1.09 (QM Group 0 ID 1)
Info: MM-QM pair: 3303:3304 -> Value (distance or ratio): 0.99 (QM Group 0 ID 1)
Info: STRUCTURE SUMMARY:
Info: 48341 ATOMS
Info: 33354 BONDS
Info: 21065 ANGLES
Info: 8802 DIHEDRALS
Info: 566 IMPROPERS
Info: 213 CROSSTERMS
Info: 0 EXCLUSIONS
Info: 145023 DEGREES OF FREEDOM
Info: 16669 HYDROGEN GROUPS
Info: 4 ATOMS IN LARGEST HYDROGEN GROUP
Info: 16669 MIGRATION GROUPS
Info: 4 ATOMS IN LARGEST MIGRATION GROUP
Info: TOTAL MASS = 294152 amu
Info: TOTAL CHARGE = 0.999003 e
Info: MASS DENSITY = 1.02889 g/cm^3
Info: ATOM DENSITY = 0.101824 atoms/A^3
Info: The QM region will remove 33 bonds, 52 angles, 61 dihedrals, 4 impropers and 0 crossterms.
Info: ADDED 63124 IMPLICIT EXCLUSIONS
Info: NONBONDED TABLE R-SQUARED SPACING: 0.0625
Info: NONBONDED TABLE SIZE: 769 POINTS
Info: REMOVING COM VELOCITY 0.0274177 -0.0397561 0.00018185
TCL: Running for 5 steps
Info: List of ranks running QM simulations: 0.
ETITLE: TS BOND ANGLE DIHED IMPRP ELECT VDW BOUNDARY MISC KINETIC TOTAL TEMP POTENTIAL TOTAL3 TEMPAVG PRESSURE GPRESSURE VOLUME PRESSAVG GPRESSAVG
ENERGY: 0 15593.5827 10304.3205 1958.1062 113.7009 -196460.4808 18186.6355 0.0000 -165.0072 43075.3543 -107393.7880 298.9388 -150469.1422 -107299.4683 298.9388 -744.1405 -766.2654 474748.4077 -744.1405 -766.2654
TCL: Writing to files with basename ./output/15/decarb.job0000.drift0000.iter0000.
TCL: Running for 5 steps
TCL: Writing to files with basename ./output/15/decarb.job0000.drift0001.iter0000.
TCL: Running for 5 steps
TCL: Writing to files with basename ./output/15/decarb.job0000.drift0002.iter0000.
TCL: Running for 5 steps
TCL: Writing to files with basename ./output/15/decarb.job0000.drift0003.iter0000.
TCL: Running for 5 steps
TCL: Writing to files with basename ./output/15/decarb.job0000.drift0004.iter0000.
TCL: Running for 5 steps
TCL: Running for 5 steps
TCL: Running for 5 steps
TCL: Running for 5 steps
TCL: Running for 5 steps
TCL: Running for 5 steps
TCL: Running for 5 steps
TCL: Running for 5 steps
TCL: Running for 5 steps
TCL: Running for 5 steps
TCL: Running for 5 steps
TCL: Running for 5 steps
TCL: Running for 5 steps
TCL: Running for 5 steps
TCL: Running for 5 steps
ETITLE: TS BOND ANGLE DIHED IMPRP ELECT VDW BOUNDARY MISC KINETIC TOTAL TEMP POTENTIAL TOTAL3 TEMPAVG PRESSURE GPRESSURE VOLUME PRESSAVG GPRESSAVG
ENERGY: 100 15632.2054 10225.3761 1985.6076 120.0573 -196450.9791 18079.0061 0.0000 -65.6939 43064.2166 -107410.2038 298.8616 -150474.4204 -107318.4551 299.6515 -950.6471 -958.5050 474748.4077 -813.8816 -834.7411
TCL: Running for 5 steps
ETITLE: TS BOND ANGLE DIHED IMPRP ELECT VDW BOUNDARY MISC KINETIC TOTAL TEMP POTENTIAL TOTAL3 TEMPAVG PRESSURE GPRESSURE VOLUME PRESSAVG GPRESSAVG
ENERGY: 100 15632.2054 10225.3761 1985.6076 120.0573 -196450.9791 18079.0061 0.0000 -65.0777 43064.2166 -107409.5876 298.8616 -150473.8042 -107307.6648 298.8616 -951.9080 -965.7868 474748.4077 -951.9080 -965.7868
TCL: Running for 5 steps
TCL: Running for 5 steps
TCL: Running for 5 steps
TCL: Running for 5 steps
TCL: Running for 5 steps
TCL: Running for 5 steps
TCL: Running for 5 steps
TCL: Running for 5 steps
TCL: Running for 5 steps
TCL: Running for 5 steps
TCL: Running for 5 steps
TCL: Running for 5 steps
TCL: Running for 5 steps
TCL: Running for 5 steps
TCL: Running for 5 steps
TCL: Running for 5 steps
TCL: Running for 5 steps
TCL: Running for 5 steps
TCL: Running for 5 steps
ETITLE: TS BOND ANGLE DIHED IMPRP ELECT VDW BOUNDARY MISC KINETIC TOTAL TEMP POTENTIAL TOTAL3 TEMPAVG PRESSURE GPRESSURE VOLUME PRESSAVG GPRESSAVG
ENERGY: 200 15691.6803 10179.8779 1958.5366 117.9728 -196611.1974 18045.9470 0.0000 0.2255 43190.5827 -107426.3746 299.7385 -150616.9573 -107351.7830 299.4903 -1161.7389 -925.8790 474748.4077 -899.7505 -935.2323
TCL: Running for 5 steps
ETITLE: TS BOND ANGLE DIHED IMPRP ELECT VDW BOUNDARY MISC KINETIC TOTAL TEMP POTENTIAL TOTAL3 TEMPAVG PRESSURE GPRESSURE VOLUME PRESSAVG GPRESSAVG
ENERGY: 200 15691.6803 10179.8779 1958.5366 117.9728 -196611.1974 18045.9470 0.0000 0.4803 43190.5827 -107426.1199 299.7385 -150616.7026 -107331.8755 299.7385 -1163.5498 -925.2425 474748.4077 -1163.5498 -925.2425
TCL: Running for 5 steps
TCL: Running for 5 steps
TCL: Running for 5 steps
TCL: Running for 5 steps
TCL: Writing to files with basename ./output/15/decarb.job0000.image0015.iter0000.
TCL: Running for 5 steps
TCL: Writing to files with basename ./output/15/decarb.job0000.drift0000.iter0001.
TCL: Running for 5 steps
TCL: Writing to files with basename ./output/15/decarb.job0000.drift0001.iter0001.
TCL: Running for 5 steps
TCL: Writing to files with basename ./output/15/decarb.job0000.drift0002.iter0001.
TCL: Running for 5 steps
TCL: Writing to files with basename ./output/15/decarb.job0000.drift0003.iter0001.
TCL: Running for 5 steps
TCL: Writing to files with basename ./output/15/decarb.job0000.drift0004.iter0001.
TCL: Running for 5 steps
TCL: Running for 5 steps
TCL: Running for 5 steps
TCL: Running for 5 steps
TCL: Running for 5 steps
TCL: Running for 5 steps
TCL: Running for 5 steps
TCL: Running for 5 steps
TCL: Running for 5 steps
TCL: Running for 5 steps
ETITLE: TS BOND ANGLE DIHED IMPRP ELECT VDW BOUNDARY MISC KINETIC TOTAL TEMP POTENTIAL TOTAL3 TEMPAVG PRESSURE GPRESSURE VOLUME PRESSAVG GPRESSAVG
ENERGY: 300 15718.9268 10244.4545 1958.0478 113.6259 -196452.6511 18022.6940 0.0000 45.2576 43322.8661 -107026.7785 300.6566 -150349.6446 -106936.9064 300.5620 -842.5365 -915.9476 474748.4077 -961.7517 -933.2937
TCL: Running for 5 steps
ETITLE: TS BOND ANGLE DIHED IMPRP ELECT VDW BOUNDARY MISC KINETIC TOTAL TEMP POTENTIAL TOTAL3 TEMPAVG PRESSURE GPRESSURE VOLUME PRESSAVG GPRESSAVG
ENERGY: 300 15718.9268 10244.4545 1958.0478 113.6259 -196452.6511 18022.6940 0.0000 45.3905 43322.8661 -107026.6456 300.6566 -150349.5116 -106932.1160 300.6566 -843.0218 -918.8958 474748.4077 -843.0218 -918.8958
TCL: Running for 5 steps
TCL: Running for 5 steps
TCL: Running for 5 steps
TCL: Running for 5 steps
TCL: Running for 5 steps
TCL: Running for 5 steps
TCL: Running for 5 steps
TCL: Running for 5 steps
TCL: Running for 5 steps
TCL: Running for 5 steps
TCL: Running for 5 steps
TCL: Running for 5 steps
TCL: Running for 5 steps
TCL: Running for 5 steps
TCL: Running for 5 steps
TCL: Running for 5 steps
TCL: Running for 5 steps
TCL: Running for 5 steps
TCL: Running for 5 steps
ETITLE: TS BOND ANGLE DIHED IMPRP ELECT VDW BOUNDARY MISC KINETIC TOTAL TEMP POTENTIAL TOTAL3 TEMPAVG PRESSURE GPRESSURE VOLUME PRESSAVG GPRESSAVG
ENERGY: 400 15531.2926 10304.2491 1953.7738 124.2353 -196557.2600 18090.6013 0.0000 43.1734 43444.0919 -107065.8425 301.4979 -150509.9344 -106958.5639 299.7658 -791.7691 -879.3617 474748.4077 -942.7877 -950.9073
TCL: Running for 5 steps
ETITLE: TS BOND ANGLE DIHED IMPRP ELECT VDW BOUNDARY MISC KINETIC TOTAL TEMP POTENTIAL TOTAL3 TEMPAVG PRESSURE GPRESSURE VOLUME PRESSAVG GPRESSAVG
ENERGY: 400 15531.2926 10304.2491 1953.7738 124.2353 -196557.2600 18090.6013 0.0000 43.3404 43444.0919 -107065.6755 301.4979 -150509.7674 -106971.8238 301.4979 -789.6556 -877.4918 474748.4077 -789.6556 -877.4918
TCL: Running for 5 steps
TCL: Running for 5 steps
TCL: Running for 5 steps
TCL: Running for 5 steps
TCL: Running for 5 steps
TCL: Running for 5 steps
TCL: Running for 5 steps
TCL: Running for 5 steps
TCL: Running for 5 steps
TCL: Writing to files with basename ./output/15/decarb.job0000.image0015.iter0001.
TCL: Running for 5 steps
TCL: Writing to files with basename ./output/15/decarb.job0000.drift0000.iter0002.
TCL: Running for 5 steps
TCL: Writing to files with basename ./output/15/decarb.job0000.drift0001.iter0002.
TCL: Running for 5 steps
TCL: Writing to files with basename ./output/15/decarb.job0000.drift0002.iter0002.
TCL: Running for 5 steps
TCL: Writing to files with basename ./output/15/decarb.job0000.drift0003.iter0002.
TCL: Running for 5 steps
TCL: Writing to files with basename ./output/15/decarb.job0000.drift0004.iter0002.
TCL: Running for 5 steps
TCL: Running for 5 steps
TCL: Running for 5 steps
TCL: Running for 5 steps
TCL: Running for 5 steps
ETITLE: TS BOND ANGLE DIHED IMPRP ELECT VDW BOUNDARY MISC KINETIC TOTAL TEMP POTENTIAL TOTAL3 TEMPAVG PRESSURE GPRESSURE VOLUME PRESSAVG GPRESSAVG
ENERGY: 500 15709.0535 10211.9607 1958.4844 121.3016 -196832.0701 18199.8858 0.0000 14.3256 43486.6226 -107130.4360 301.7930 -150617.0586 -106999.2456 300.8459 -999.7961 -827.7047 474748.4077 -1017.9805 -908.5522
TCL: Running for 5 steps
ETITLE: TS BOND ANGLE DIHED IMPRP ELECT VDW BOUNDARY MISC KINETIC TOTAL TEMP POTENTIAL TOTAL3 TEMPAVG PRESSURE GPRESSURE VOLUME PRESSAVG GPRESSAVG
ENERGY: 500 15709.0535 10211.9607 1958.4844 121.3016 -196832.0701 18199.8858 0.0000 14.3368 43486.6226 -107130.4247 301.7930 -150617.0473 -107041.4168 301.7930 -995.6838 -826.9376 474748.4077 -995.6838 -826.9376
TCL: Running for 5 steps
TCL: Running for 5 steps
TCL: Running for 5 steps
TCL: Running for 5 steps
TCL: Running for 5 steps
TCL: Running for 5 steps
TCL: Running for 5 steps
TCL: Running for 5 steps
TCL: Running for 5 steps
TCL: Running for 5 steps
TCL: Running for 5 steps
TCL: Running for 5 steps
TCL: Running for 5 steps
TCL: Running for 5 steps
TCL: Running for 5 steps
TCL: Running for 5 steps
TCL: Running for 5 steps
TCL: Running for 5 steps
TCL: Running for 5 steps
ETITLE: TS BOND ANGLE DIHED IMPRP ELECT VDW BOUNDARY MISC KINETIC TOTAL TEMP POTENTIAL TOTAL3 TEMPAVG PRESSURE GPRESSURE VOLUME PRESSAVG GPRESSAVG
ENERGY: 600 15767.9576 10281.3641 1957.0492 110.7050 -196887.4183 18182.1670 0.0000 -70.5659 43148.4389 -107510.3026 299.4460 -150658.7414 -107404.8758 300.0422 -1046.8658 -864.2859 474748.4077 -786.3655 -813.3659
TCL: Running for 5 steps
ETITLE: TS BOND ANGLE DIHED IMPRP ELECT VDW BOUNDARY MISC KINETIC TOTAL TEMP POTENTIAL TOTAL3 TEMPAVG PRESSURE GPRESSURE VOLUME PRESSAVG GPRESSAVG
ENERGY: 600 15767.9576 10281.3641 1957.0492 110.7050 -196887.4183 18182.1670 0.0000 -70.1969 43148.4389 -107509.9336 299.4460 -150658.3724 -107408.6664 299.4460 -1045.9161 -861.0189 474748.4077 -1045.9161 -861.0189
TCL: Running for 5 steps
TCL: Running for 5 steps
TCL: Running for 5 steps
TCL: Running for 5 steps
TCL: Running for 5 steps
TCL: Running for 5 steps
TCL: Running for 5 steps
TCL: Running for 5 steps
TCL: Running for 5 steps
TCL: Running for 5 steps
TCL: Running for 5 steps
TCL: Running for 5 steps
TCL: Running for 5 steps
TCL: Running for 5 steps
TCL: Writing to files with basename ./output/15/decarb.job0000.image0015.iter0002.
TCL: Running for 5 steps
TCL: Writing to files with basename ./output/15/decarb.job0000.drift0000.iter0003.
TCL: Running for 5 steps
TCL: Writing to files with basename ./output/15/decarb.job0000.drift0001.iter0003.
TCL: Running for 5 steps
TCL: Writing to files with basename ./output/15/decarb.job0000.drift0002.iter0003.
TCL: Running for 5 steps
TCL: Writing to files with basename ./output/15/decarb.job0000.drift0003.iter0003.
TCL: Running for 5 steps
ETITLE: TS BOND ANGLE DIHED IMPRP ELECT VDW BOUNDARY MISC KINETIC TOTAL TEMP POTENTIAL TOTAL3 TEMPAVG PRESSURE GPRESSURE VOLUME PRESSAVG GPRESSAVG
ENERGY: 700 15639.9735 10198.5323 1960.1429 120.6376 -196643.2986 18052.7050 0.0000 -156.0868 43308.3734 -107519.0208 300.5560 -150827.3941 -107398.1896 300.0008 -863.3876 -954.3776 474748.4077 -937.7993 -909.8325
TCL: Writing to files with basename ./output/15/decarb.job0000.drift0004.iter0003.
TCL: Running for 5 steps
ETITLE: TS BOND ANGLE DIHED IMPRP ELECT VDW BOUNDARY MISC KINETIC TOTAL TEMP POTENTIAL TOTAL3 TEMPAVG PRESSURE GPRESSURE VOLUME PRESSAVG GPRESSAVG
ENERGY: 700 15639.9735 10198.5323 1960.1429 120.6376 -196643.2986 18052.7050 0.0000 -156.0868 43308.3734 -107519.0207 300.5560 -150827.3941 -107420.3976 300.5560 -861.2190 -953.3463 474748.4077 -861.2190 -953.3463
TCL: Running for 5 steps
TCL: Running for 5 steps
TCL: Running for 5 steps
TCL: Running for 5 steps
TCL: Running for 5 steps
TCL: Running for 5 steps
TCL: Running for 5 steps
TCL: Running for 5 steps
TCL: Running for 5 steps
TCL: Running for 5 steps
TCL: Running for 5 steps
TCL: Running for 5 steps
TCL: Running for 5 steps
TCL: Running for 5 steps
TCL: Running for 5 steps
TCL: Running for 5 steps
TCL: Running for 5 steps
TCL: Running for 5 steps
TCL: Running for 5 steps
ETITLE: TS BOND ANGLE DIHED IMPRP ELECT VDW BOUNDARY MISC KINETIC TOTAL TEMP POTENTIAL TOTAL3 TEMPAVG PRESSURE GPRESSURE VOLUME PRESSAVG GPRESSAVG
ENERGY: 800 15775.9643 10218.9809 1962.4240 121.1984 -196770.4115 18025.1763 0.0000 -104.4118 43028.5964 -107742.4831 298.6144 -150771.0794 -107615.5104 299.8687 -1210.8637 -1076.0450 474748.4077 -1012.2970 -977.8218
TCL: Running for 5 steps
ETITLE: TS BOND ANGLE DIHED IMPRP ELECT VDW BOUNDARY MISC KINETIC TOTAL TEMP POTENTIAL TOTAL3 TEMPAVG PRESSURE GPRESSURE VOLUME PRESSAVG GPRESSAVG
ENERGY: 800 15775.9643 10218.9809 1962.4240 121.1984 -196770.4115 18025.1763 0.0000 -104.0063 43028.5964 -107742.0775 298.6144 -150770.6739 -107648.7028 298.6144 -1206.9449 -1072.9170 474748.4077 -1206.9449 -1072.9170
TCL: Running for 5 steps
TCL: Running for 5 steps
TCL: Running for 5 steps
TCL: Running for 5 steps
TCL: Running for 5 steps
TCL: Running for 5 steps
TCL: Running for 5 steps
TCL: Running for 5 steps
TCL: Running for 5 steps
TCL: Running for 5 steps
TCL: Running for 5 steps
TCL: Running for 5 steps
TCL: Running for 5 steps
TCL: Running for 5 steps
TCL: Running for 5 steps
TCL: Running for 5 steps
TCL: Running for 5 steps
TCL: Running for 5 steps
TCL: Running for 5 steps
ETITLE: TS BOND ANGLE DIHED IMPRP ELECT VDW BOUNDARY MISC KINETIC TOTAL TEMP POTENTIAL TOTAL3 TEMPAVG PRESSURE GPRESSURE VOLUME PRESSAVG GPRESSAVG
ENERGY: 900 15736.1020 10407.2170 1947.9184 126.2685 -196915.9562 18141.3320 0.0000 -137.3028 43233.3095 -107461.1117 300.0350 -150694.4211 -107486.7819 300.2666 -775.9714 -827.6289 474748.4077 -923.2607 -931.4421
TCL: Writing to files with basename ./output/15/decarb.job0000.image0015.iter0003.
TCL: Running for 5 steps
ETITLE: TS BOND ANGLE DIHED IMPRP ELECT VDW BOUNDARY MISC KINETIC TOTAL TEMP POTENTIAL TOTAL3 TEMPAVG PRESSURE GPRESSURE VOLUME PRESSAVG GPRESSAVG
ENERGY: 900 15736.1020 10407.2170 1947.9184 126.2685 -196915.9562 18141.3320 0.0000 -141.2239 43233.3095 -107465.0328 300.0350 -150698.3423 -107372.1595 300.0350 -796.4040 -847.6333 474748.4077 -796.4040 -847.6333
TCL: Writing to files with basename ./output/15/decarb.job0000.drift0000.iter0004.
TCL: Running for 5 steps
TCL: Writing to files with basename ./output/15/decarb.job0000.drift0001.iter0004.
TCL: Running for 5 steps
TCL: Writing to files with basename ./output/15/decarb.job0000.drift0002.iter0004.
TCL: Running for 5 steps
TCL: Writing to files with basename ./output/15/decarb.job0000.drift0003.iter0004.
TCL: Running for 5 steps
TCL: Writing to files with basename ./output/15/decarb.job0000.drift0004.iter0004.
TCL: Running for 5 steps
TCL: Running for 5 steps
TCL: Running for 5 steps
TCL: Running for 5 steps
TCL: Running for 5 steps
TCL: Running for 5 steps
TCL: Running for 5 steps
TCL: Running for 5 steps
TCL: Running for 5 steps
TCL: Running for 5 steps
TCL: Running for 5 steps
TCL: Running for 5 steps
TCL: Running for 5 steps
TCL: Running for 5 steps
TCL: Running for 5 steps
ETITLE: TS BOND ANGLE DIHED IMPRP ELECT VDW BOUNDARY MISC KINETIC TOTAL TEMP POTENTIAL TOTAL3 TEMPAVG PRESSURE GPRESSURE VOLUME PRESSAVG GPRESSAVG
ENERGY: 1000 15674.6941 10110.2624 1968.5512 102.3281 -196914.6270 18308.7976 0.0000 -52.5000 43287.6975 -107514.7961 300.4125 -150802.4936 -107411.2293 300.0901 -743.2152 -832.2455 474748.4077 -848.6815 -824.0145
TCL: Running for 5 steps
ETITLE: TS BOND ANGLE DIHED IMPRP ELECT VDW BOUNDARY MISC KINETIC TOTAL TEMP POTENTIAL TOTAL3 TEMPAVG PRESSURE GPRESSURE VOLUME PRESSAVG GPRESSAVG
ENERGY: 1000 15674.6941 10110.2624 1968.5512 102.3281 -196914.6270 18308.7976 0.0000 -52.2280 43287.6975 -107514.5241 300.4125 -150802.2216 -107420.6975 300.4125 -742.3162 -832.2463 474748.4077 -742.3162 -832.2463
TCL: Running for 5 steps
TCL: Running for 5 steps
TCL: Running for 5 steps
TCL: Running for 5 steps
TCL: Running for 5 steps
TCL: Running for 5 steps
TCL: Running for 5 steps
TCL: Running for 5 steps
TCL: Running for 5 steps
TCL: Running for 5 steps
TCL: Running for 5 steps
TCL: Running for 5 steps
TCL: Running for 5 steps
TCL: Running for 5 steps
TCL: Running for 5 steps
TCL: Running for 5 steps
TCL: Running for 5 steps
TCL: Running for 5 steps
TCL: Running for 5 steps
ETITLE: TS BOND ANGLE DIHED IMPRP ELECT VDW BOUNDARY MISC KINETIC TOTAL TEMP POTENTIAL TOTAL3 TEMPAVG PRESSURE GPRESSURE VOLUME PRESSAVG GPRESSAVG
ENERGY: 1100 15638.2406 10321.6514 1937.9528 118.5983 -197057.0544 18458.0360 0.0000 -88.2851 42968.5190 -107702.3415 298.1974 -150670.8605 -107522.0068 299.9449 -617.9531 -626.0832 474748.4077 -668.5462 -734.9494
TCL: Running for 5 steps
ETITLE: TS BOND ANGLE DIHED IMPRP ELECT VDW BOUNDARY MISC KINETIC TOTAL TEMP POTENTIAL TOTAL3 TEMPAVG PRESSURE GPRESSURE VOLUME PRESSAVG GPRESSAVG
ENERGY: 1100 15638.2406 10321.6514 1937.9528 118.5983 -197057.0544 18458.0360 0.0000 -88.1051 42968.5190 -107702.1615 298.1974 -150670.6805 -107607.4884 298.1974 -609.5501 -624.5751 474748.4077 -609.5501 -624.5751
TCL: Running for 5 steps
TCL: Running for 5 steps
TCL: Running for 5 steps
TCL: Running for 5 steps
TCL: Writing to files with basename ./output/15/decarb.job0000.image0015.iter0004.
TCL: Running for 5 steps
TCL: Writing to files with basename ./output/15/decarb.job0000.drift0000.iter0005.
TCL: Running for 5 steps
TCL: Writing to files with basename ./output/15/decarb.job0000.drift0001.iter0005.
TCL: Running for 5 steps
TCL: Writing to files with basename ./output/15/decarb.job0000.drift0002.iter0005.
TCL: Running for 5 steps
TCL: Writing to files with basename ./output/15/decarb.job0000.drift0003.iter0005.
TCL: Running for 5 steps
TCL: Writing to files with basename ./output/15/decarb.job0000.drift0004.iter0005.
TCL: Running for 5 steps
TCL: Running for 5 steps
TCL: Running for 5 steps
TCL: Running for 5 steps
TCL: Running for 5 steps
TCL: Running for 5 steps
TCL: Running for 5 steps
TCL: Running for 5 steps
TCL: Running for 5 steps
TCL: Running for 5 steps
ETITLE: TS BOND ANGLE DIHED IMPRP ELECT VDW BOUNDARY MISC KINETIC TOTAL TEMP POTENTIAL TOTAL3 TEMPAVG PRESSURE GPRESSURE VOLUME PRESSAVG GPRESSAVG
ENERGY: 1200 15498.5375 10333.6950 1926.5385 117.9567 -197193.3506 18353.8657 0.0000 -30.8607 43298.7315 -107694.8864 300.4891 -150993.6179 -107540.4138 300.3872 -671.4949 -764.1661 474748.4077 -796.4028 -760.0788
TCL: Running for 5 steps
ETITLE: TS BOND ANGLE DIHED IMPRP ELECT VDW BOUNDARY MISC KINETIC TOTAL TEMP POTENTIAL TOTAL3 TEMPAVG PRESSURE GPRESSURE VOLUME PRESSAVG GPRESSAVG
ENERGY: 1200 15498.5375 10333.6950 1926.5385 117.9567 -197193.3506 18353.8657 0.0000 -30.7678 43298.7315 -107694.7935 300.4891 -150993.5249 -107596.5747 300.4891 -666.0358 -764.8171 474748.4077 -666.0358 -764.8171
TCL: Running for 5 steps
TCL: Running for 5 steps
TCL: Running for 5 steps
TCL: Running for 5 steps
TCL: Running for 5 steps
TCL: Running for 5 steps
TCL: Running for 5 steps
TCL: Running for 5 steps
TCL: Running for 5 steps
TCL: Running for 5 steps
TCL: Running for 5 steps
TCL: Running for 5 steps
TCL: Running for 5 steps
TCL: Running for 5 steps
TCL: Running for 5 steps
TCL: Running for 5 steps
TCL: Running for 5 steps
TCL: Running for 5 steps
TCL: Running for 5 steps
ETITLE: TS BOND ANGLE DIHED IMPRP ELECT VDW BOUNDARY MISC KINETIC TOTAL TEMP POTENTIAL TOTAL3 TEMPAVG PRESSURE GPRESSURE VOLUME PRESSAVG GPRESSAVG
ENERGY: 1300 15485.9022 10146.0929 1958.5714 124.1095 -196903.5252 18456.2644 0.0000 -143.6658 42945.9637 -107930.2870 298.0409 -150876.2507 -107856.8036 299.5428 -590.3946 -721.4718 474748.4077 -826.8179 -758.8364
TCL: Running for 5 steps
ETITLE: TS BOND ANGLE DIHED IMPRP ELECT VDW BOUNDARY MISC KINETIC TOTAL TEMP POTENTIAL TOTAL3 TEMPAVG PRESSURE GPRESSURE VOLUME PRESSAVG GPRESSAVG
ENERGY: 1300 15485.9022 10146.0929 1958.5714 124.1095 -196903.5252 18456.2644 0.0000 -143.5408 42945.9637 -107930.1619 298.0409 -150876.1256 -107833.9114 298.0409 -592.7450 -721.8706 474748.4077 -592.7450 -721.8706
TCL: Running for 5 steps
TCL: Running for 5 steps
TCL: Running for 5 steps
TCL: Running for 5 steps
TCL: Running for 5 steps
TCL: Running for 5 steps
TCL: Running for 5 steps
TCL: Running for 5 steps
TCL: Running for 5 steps
TCL: Writing to files with basename ./output/15/decarb.job0000.image0015.iter0005.
TCL: Running for 5 steps
TCL: Writing to files with basename ./output/15/decarb.job0000.drift0000.iter0006.
TCL: Running for 5 steps
TCL: Writing to files with basename ./output/15/decarb.job0000.drift0001.iter0006.
TCL: Running for 5 steps
TCL: Writing to files with basename ./output/15/decarb.job0000.drift0002.iter0006.
TCL: Running for 5 steps
TCL: Writing to files with basename ./output/15/decarb.job0000.drift0003.iter0006.
TCL: Running for 5 steps
TCL: Writing to files with basename ./output/15/decarb.job0000.drift0004.iter0006.
TCL: Running for 5 steps
TCL: Running for 5 steps
TCL: Running for 5 steps
TCL: Running for 5 steps
TCL: Running for 5 steps
ETITLE: TS BOND ANGLE DIHED IMPRP ELECT VDW BOUNDARY MISC KINETIC TOTAL TEMP POTENTIAL TOTAL3 TEMPAVG PRESSURE GPRESSURE VOLUME PRESSAVG GPRESSAVG
ENERGY: 1400 15675.5233 10218.5188 1935.9139 117.8649 -197312.1313 18553.4742 0.0000 -52.8048 43254.6903 -107608.9506 300.1834 -150863.6409 -107532.8256 300.0158 -705.9332 -717.3317 474748.4077 -733.3170 -712.4258
TCL: Running for 5 steps
ETITLE: TS BOND ANGLE DIHED IMPRP ELECT VDW BOUNDARY MISC KINETIC TOTAL TEMP POTENTIAL TOTAL3 TEMPAVG PRESSURE GPRESSURE VOLUME PRESSAVG GPRESSAVG
ENERGY: 1400 15675.5233 10218.5188 1935.9139 117.8649 -197312.1313 18553.4742 0.0000 -52.8015 43254.6903 -107608.9472 300.1834 -150863.6376 -107513.2155 300.1834 -707.8529 -715.9599 474748.4077 -707.8529 -715.9599
TCL: Running for 5 steps
TCL: Running for 5 steps
TCL: Running for 5 steps
TCL: Running for 5 steps
TCL: Running for 5 steps
TCL: Running for 5 steps
TCL: Running for 5 steps
TCL: Running for 5 steps
TCL: Running for 5 steps
TCL: Running for 5 steps
TCL: Running for 5 steps
TCL: Running for 5 steps
TCL: Running for 5 steps
TCL: Running for 5 steps
TCL: Running for 5 steps
TCL: Running for 5 steps
TCL: Running for 5 steps
TCL: Running for 5 steps
TCL: Running for 5 steps
ETITLE: TS BOND ANGLE DIHED IMPRP ELECT VDW BOUNDARY MISC KINETIC TOTAL TEMP POTENTIAL TOTAL3 TEMPAVG PRESSURE GPRESSURE VOLUME PRESSAVG GPRESSAVG
ENERGY: 1500 15751.5585 10359.2104 1955.8566 111.7467 -197340.6403 18552.3345 0.0000 -38.3572 43442.8454 -107205.4454 301.4892 -150648.2908 -107116.9735 299.5635 -716.8355 -583.1060 474748.4077 -708.4515 -691.6698
TCL: Running for 5 steps
ETITLE: TS BOND ANGLE DIHED IMPRP ELECT VDW BOUNDARY MISC KINETIC TOTAL TEMP POTENTIAL TOTAL3 TEMPAVG PRESSURE GPRESSURE VOLUME PRESSAVG GPRESSAVG
ENERGY: 1500 15751.5585 10359.2104 1955.8566 111.7467 -197340.6403 18552.3345 0.0000 -37.4197 43442.8454 -107204.5078 301.4892 -150647.3533 -107121.7687 301.4892 -716.6563 -584.8244 474748.4077 -716.6563 -584.8244
TCL: Running for 5 steps
TCL: Running for 5 steps
TCL: Running for 5 steps
TCL: Running for 5 steps
TCL: Running for 5 steps
TCL: Running for 5 steps
TCL: Running for 5 steps
TCL: Running for 5 steps
TCL: Running for 5 steps
TCL: Running for 5 steps
TCL: Running for 5 steps
TCL: Running for 5 steps
TCL: Running for 5 steps
TCL: Running for 5 steps
TCL: Writing to files with basename ./output/15/decarb.job0000.image0015.iter0006.
TCL: Running for 5 steps
TCL: Writing to files with basename ./output/15/decarb.job0000.drift0000.iter0007.
TCL: Running for 5 steps
TCL: Writing to files with basename ./output/15/decarb.job0000.drift0001.iter0007.
TCL: Running for 5 steps
TCL: Writing to files with basename ./output/15/decarb.job0000.drift0002.iter0007.
TCL: Running for 5 steps
TCL: Writing to files with basename ./output/15/decarb.job0000.drift0003.iter0007.
TCL: Running for 5 steps
ETITLE: TS BOND ANGLE DIHED IMPRP ELECT VDW BOUNDARY MISC KINETIC TOTAL TEMP POTENTIAL TOTAL3 TEMPAVG PRESSURE GPRESSURE VOLUME PRESSAVG GPRESSAVG
ENERGY: 1600 15591.8586 10136.1358 1955.1307 115.6454 -197088.4424 18485.9574 0.0000 -88.2988 43226.9404 -107665.0728 299.9908 -150892.0133 -107573.9263 300.3945 -405.6401 -691.1328 474748.4077 -720.4940 -773.2356
TCL: Writing to files with basename ./output/15/decarb.job0000.drift0004.iter0007.
TCL: Running for 5 steps
ETITLE: TS BOND ANGLE DIHED IMPRP ELECT VDW BOUNDARY MISC KINETIC TOTAL TEMP POTENTIAL TOTAL3 TEMPAVG PRESSURE GPRESSURE VOLUME PRESSAVG GPRESSAVG
ENERGY: 1600 15591.8586 10136.1358 1955.1307 115.6454 -197088.4424 18485.9574 0.0000 -88.2987 43226.9404 -107665.0727 299.9908 -150892.0132 -107565.6385 299.9908 -406.4480 -689.7384 474748.4077 -406.4480 -689.7384
TCL: Running for 5 steps
TCL: Running for 5 steps
TCL: Running for 5 steps
TCL: Running for 5 steps
TCL: Running for 5 steps
TCL: Running for 5 steps
TCL: Running for 5 steps
TCL: Running for 5 steps
TCL: Running for 5 steps
TCL: Running for 5 steps
TCL: Running for 5 steps
TCL: Running for 5 steps
TCL: Running for 5 steps
TCL: Running for 5 steps
TCL: Running for 5 steps
TCL: Running for 5 steps
TCL: Running for 5 steps
TCL: Running for 5 steps
TCL: Running for 5 steps
ETITLE: TS BOND ANGLE DIHED IMPRP ELECT VDW BOUNDARY MISC KINETIC TOTAL TEMP POTENTIAL TOTAL3 TEMPAVG PRESSURE GPRESSURE VOLUME PRESSAVG GPRESSAVG
ENERGY: 1700 15630.8950 10157.3630 1949.0179 118.8062 -197182.9016 18624.5496 0.0000 -24.0451 43080.6294 -107645.6856 298.9755 -150726.3150 -107550.3189 299.7702 -435.3983 -589.7317 474748.4077 -688.5098 -680.4101
TCL: Running for 5 steps
ETITLE: TS BOND ANGLE DIHED IMPRP ELECT VDW BOUNDARY MISC KINETIC TOTAL TEMP POTENTIAL TOTAL3 TEMPAVG PRESSURE GPRESSURE VOLUME PRESSAVG GPRESSAVG
ENERGY: 1700 15630.8950 10157.3630 1949.0179 118.8062 -197182.9016 18624.5496 0.0000 -23.4123 43080.6294 -107645.0528 298.9755 -150725.6822 -107554.2630 298.9755 -435.1454 -589.3811 474748.4077 -435.1454 -589.3811
TCL: Running for 5 steps
TCL: Running for 5 steps
TCL: Running for 5 steps
TCL: Running for 5 steps
TCL: Running for 5 steps
TCL: Running for 5 steps
TCL: Running for 5 steps
TCL: Running for 5 steps
TCL: Running for 5 steps
TCL: Running for 5 steps
TCL: Running for 5 steps
TCL: Running for 5 steps
TCL: Running for 5 steps
TCL: Running for 5 steps
TCL: Running for 5 steps
TCL: Running for 5 steps
TCL: Running for 5 steps
TCL: Running for 5 steps
TCL: Running for 5 steps
ETITLE: TS BOND ANGLE DIHED IMPRP ELECT VDW BOUNDARY MISC KINETIC TOTAL TEMP POTENTIAL TOTAL3 TEMPAVG PRESSURE GPRESSURE VOLUME PRESSAVG GPRESSAVG
ENERGY: 1800 15769.7448 10244.6603 1940.9165 126.7691 -197586.5374 18647.8482 0.0000 -50.6310 43433.5837 -107473.6459 301.4249 -150907.2296 -107391.3148 300.1315 -630.6586 -653.2751 474748.4077 -703.5560 -704.6176
TCL: Writing to files with basename ./output/15/decarb.job0000.image0015.iter0007.
TCL: Running for 5 steps
ETITLE: TS BOND ANGLE DIHED IMPRP ELECT VDW BOUNDARY MISC KINETIC TOTAL TEMP POTENTIAL TOTAL3 TEMPAVG PRESSURE GPRESSURE VOLUME PRESSAVG GPRESSAVG
ENERGY: 1800 15769.7448 10244.6603 1940.9165 126.7691 -197586.5374 18647.8482 0.0000 -51.7860 43433.5837 -107474.8009 301.4249 -150908.3846 -107387.4461 301.4249 -644.1886 -662.7436 474748.4077 -644.1886 -662.7436
TCL: Writing to files with basename ./output/15/decarb.job0000.drift0000.iter0008.
TCL: Running for 5 steps
TCL: Writing to files with basename ./output/15/decarb.job0000.drift0001.iter0008.
TCL: Running for 5 steps
TCL: Writing to files with basename ./output/15/decarb.job0000.drift0002.iter0008.
TCL: Running for 5 steps
TCL: Writing to files with basename ./output/15/decarb.job0000.drift0003.iter0008.
TCL: Running for 5 steps
TCL: Writing to files with basename ./output/15/decarb.job0000.drift0004.iter0008.
TCL: Running for 5 steps
TCL: Running for 5 steps
TCL: Running for 5 steps
TCL: Running for 5 steps
TCL: Running for 5 steps
TCL: Running for 5 steps
TCL: Running for 5 steps
TCL: Running for 5 steps
TCL: Running for 5 steps
TCL: Running for 5 steps
TCL: Running for 5 steps
TCL: Running for 5 steps
TCL: Running for 5 steps
TCL: Running for 5 steps
TCL: Running for 5 steps
ETITLE: TS BOND ANGLE DIHED IMPRP ELECT VDW BOUNDARY MISC KINETIC TOTAL TEMP POTENTIAL TOTAL3 TEMPAVG PRESSURE GPRESSURE VOLUME PRESSAVG GPRESSAVG
ENERGY: 1900 15729.3482 10430.4056 1946.6846 121.8026 -197712.4951 18673.9457 0.0000 -129.8598 43353.9373 -107586.2308 300.8722 -150940.1681 -107510.3308 300.1960 -843.2929 -629.5216 474748.4077 -670.7287 -647.6823
TCL: Running for 5 steps
ETITLE: TS BOND ANGLE DIHED IMPRP ELECT VDW BOUNDARY MISC KINETIC TOTAL TEMP POTENTIAL TOTAL3 TEMPAVG PRESSURE GPRESSURE VOLUME PRESSAVG GPRESSAVG
ENERGY: 1900 15729.3482 10430.4056 1946.6846 121.8026 -197712.4951 18673.9457 0.0000 -129.6174 43353.9373 -107585.9884 300.8722 -150939.9257 -107497.2867 300.8722 -844.4558 -630.5162 474748.4077 -844.4558 -630.5162
TCL: Running for 5 steps
TCL: Running for 5 steps
TCL: Running for 5 steps
TCL: Running for 5 steps
TCL: Running for 5 steps
TCL: Running for 5 steps
TCL: Running for 5 steps
TCL: Running for 5 steps
TCL: Running for 5 steps
TCL: Running for 5 steps
TCL: Running for 5 steps
TCL: Running for 5 steps
TCL: Running for 5 steps
TCL: Running for 5 steps
TCL: Running for 5 steps
TCL: Running for 5 steps
TCL: Running for 5 steps
TCL: Running for 5 steps
TCL: Running for 5 steps
ETITLE: TS BOND ANGLE DIHED IMPRP ELECT VDW BOUNDARY MISC KINETIC TOTAL TEMP POTENTIAL TOTAL3 TEMPAVG PRESSURE GPRESSURE VOLUME PRESSAVG GPRESSAVG
ENERGY: 2000 15479.1471 10476.3350 1938.6739 112.7665 -197741.3835 18727.4028 0.0000 45.6778 43359.6381 -107601.7421 300.9118 -150961.3803 -107501.1088 299.9781 -471.7432 -570.4664 474748.4077 -590.4384 -590.4818
TCL: Running for 5 steps
