Info: SIMULATION PARAMETERS:
Info: TIMESTEP               0.5
Info: NUMBER OF STEPS        0
Info: STEPS PER CYCLE        1
Info: PERIODIC CELL BASIS 1  77.9134 0 0
Info: PERIODIC CELL BASIS 2  0 77.9134 0
Info: PERIODIC CELL BASIS 3  0 0 77.9134
Info: PERIODIC CELL CENTER   0 0 0
Info: FIRST LDB TIMESTEP     1
Info: LAST LDB TIMESTEP     -1
Info: HOM BACKGROUND SCALING 1
Info: PME BACKGROUND SCALING 1
Info: MIN ATOMS PER PATCH    40
Info: INITIAL TEMPERATURE    300
Info: CENTER OF MASS MOVING INITIALLY? NO
Info: DIELECTRIC             1
Info: EXCLUDE                SCALED ONE-FOUR
Info: 1-4 ELECTROSTATICS SCALED BY 1
Info: MODIFIED 1-4 VDW PARAMETERS WILL BE USED
Info: NO DCD TRAJECTORY OUTPUT
Info: NO EXTENDED SYSTEM TRAJECTORY OUTPUT
Info: NO VELOCITY DCD OUTPUT
Info: NO FORCE DCD OUTPUT
Info: OUTPUT FILENAME        ./output/6/decarb.job0000
Info: BINARY OUTPUT FILES WILL BE USED
Info: RESTART FILENAME       ./output/6/decarb.job0000.restart
Info: RESTART FREQUENCY      100
Info: BINARY RESTART FILES WILL BE USED
Info: SWITCHING ACTIVE
Info: SWITCHING ON           12
Info: SWITCHING OFF          14
Info: PAIRLIST DISTANCE      15
Info: PAIRLIST SHRINK RATE   0.01
Info: PAIRLIST GROW RATE     0.01
Info: PAIRLIST TRIGGER       0.3
Info: PAIRLISTS PER CYCLE    2
Info: PAIRLISTS ENABLED
Info: MARGIN                 0
Info: HYDROGEN GROUP CUTOFF  2.5
Info: PATCH DIMENSION        17.5
Info: ENERGY OUTPUT STEPS    20
Info: CROSSTERM ENERGY INCLUDED IN DIHEDRAL
Info: TIMING OUTPUT STEPS    5
Info: QM FORCES ACTIVE
Info: QM SOFTWARE: mopac
Info: QM ATOM CHARGES FROM QM SOFTWARE: MULLIKEN
Info: QM EXECUTABLE PATH: /home/ubuntu/ORCA
Info: QM COLUMN: beta
Info: QM BOND COLUMN: occ
Info: QM WILL DETECT BONDS BETWEEN QM AND MM ATOMS.
Info: QM-MM BOND SCHEME: Charge Shift.
Info: QM Will use PSF charges.
Info: QM BASE DIRECTORY: /dev/shm/NAMD_SM_qmmm
Info: QM CONFIG LINE: PM7 XYZ T=2M 1SCF AUX LET GRAD QMMM THREADS=2
Info: QM CONFIG LINE: decarboxylase
Info: QM POINT CHARGES WILL BE SELECTED EVERY 1 STEPS.
Info: QM Point Charge Switching: ON.
Info: QM Point Charge SCHEME: none.
Info: QM executions per node: 1
Info: COLLECTIVE VARIABLES CALCULATION REQUESTED
Info: COLLECTIVE VARIABLES CONFIGURATION   ./setup/colvars_6.conf
Info: LANGEVIN DYNAMICS ACTIVE
Info: LANGEVIN TEMPERATURE   300
Info: LANGEVIN USING BBK INTEGRATOR
Info: LANGEVIN DAMPING COEFFICIENT IS 200 INVERSE PS
Info: LANGEVIN DYNAMICS APPLIED TO HYDROGENS
Info: PARTICLE MESH EWALD (PME) ACTIVE
Info: PME TOLERANCE               1e-05
Info: PME EWALD COEFFICIENT       0.192342
Info: PME INTERPOLATION ORDER     4
Info: PME GRID DIMENSIONS         80 80 80
Info: PME MAXIMUM GRID SPACING    1
Info: FULL ELECTROSTATIC EVALUATION FREQUENCY      1
Info: USING VERLET I (r-RESPA) MTS SCHEME.
Info: C1 SPLITTING OF LONG RANGE ELECTROSTATICS
Info: PLACING ATOMS IN PATCHES BY HYDROGEN GROUPS
Info: RANDOM NUMBER SEED     99513
Info: USE HYDROGEN BONDS?    NO
Info: COORDINATE PDB         decarboxylase.0.pdb
Info: STRUCTURE FILE         decarboxylase.0.psf
Info: PARAMETER file: CHARMM format!
Info: PARAMETERS             ./toppar/par_all36_prot.prm
Info: PARAMETERS             ./toppar/par_all36_cgenff.prm
Info: PARAMETERS             ./toppar/par_all36_na.prm
Info: PARAMETERS             ./toppar/par_all36_carb.prm
Info: PARAMETERS             ./toppar/par_all36_lipid.prm
Info: PARAMETERS             ./toppar/toppar_water_ions_namd.str
Info: PARAMETERS             ./toppar/ligand.str
Info: USING ARITHMETIC MEAN TO COMBINE L-J SIGMA PARAMETERS
Info: BINARY COORDINATES     ./setup/image_6.coor
Info: SKIPPING rtf SECTION IN STREAM FILE
Info: SKIPPING rtf SECTION IN STREAM FILE
Info: SUMMARY OF PARAMETERS:
Info: 912 BONDS
Info: 2656 ANGLES
Info: 6453 DIHEDRAL
Info: 190 IMPROPER
Info: 6 CROSSTERM
Info: 350 VDW
Info: 6 VDW_PAIRS
Info: 0 NBTHOLE_PAIRS
Info: Using the following PDB file for QM parameters: decarboxylase.0.pdb
Info: Number of QM atoms (excluding Dummy atoms): 35
Info: We found 3 QM-MM bonds.
Info: 1) Group ID: 1 ; Group size: 35 atoms ; Total PSF charge: -1
Info: MM-QM pair: 973:975 -> Value (distance or ratio): 1.09 (QM Group 0 ID 1)
Info: MM-QM pair: 1005:1007 -> Value (distance or ratio): 1.09 (QM Group 0 ID 1)
Info: MM-QM pair: 3293:3294 -> Value (distance or ratio): 0.99 (QM Group 0 ID 1)
Info: STRUCTURE SUMMARY:
Info: 48323 ATOMS
Info: 33339 BONDS
Info: 21050 ANGLES
Info: 8790 DIHEDRALS
Info: 563 IMPROPERS
Info: 213 CROSSTERMS
Info: 0 EXCLUSIONS
Info: 144969 DEGREES OF FREEDOM
Info: 16663 HYDROGEN GROUPS
Info: 4 ATOMS IN LARGEST HYDROGEN GROUP
Info: 16663 MIGRATION GROUPS
Info: 4 ATOMS IN LARGEST MIGRATION GROUP
Info: TOTAL MASS = 294061 amu
Info: TOTAL CHARGE = 1 e
Info: MASS DENSITY = 1.03243 g/cm^3
Info: ATOM DENSITY = 0.102169 atoms/A^3
Info: The QM region will remove 33 bonds, 52 angles, 61 dihedrals, 4 impropers and 0 crossterms.
Info: ADDED 63077 IMPLICIT EXCLUSIONS
Info: NONBONDED TABLE R-SQUARED SPACING: 0.0625
Info: NONBONDED TABLE SIZE: 769 POINTS
Info: REMOVING COM VELOCITY -0.0207853 -0.00167595 0.000980392
TCL: Running for 5 steps
Info: List of ranks running QM simulations: 0.
Info: NAMD 2.12 for Linux-x86_64-MPI
Info: Please visit http://www.ks.uiuc.edu/Research/namd/
Info: for updates, documentation, and support information.
Info: Please cite Phillips et al., J. Comp. Chem. 26:1781-1802 (2005)
Info: in all publications reporting results obtained with NAMD.
Info: Based on Charm++/Converse 60800 for mpi-linux-x86_64
Info: Built Mon Mar 12 11:43:07 CDT 2018 by melomcr on amsterdam.ks.uiuc.edu
Info: 1 NAMD  2.12  Linux-x86_64-MPI  1    hanoi.ks.uiuc.edu  melomcr
Info: Running on 1 processors, 1 nodes, 1 physical nodes.
Info: CPU topology information available.
Info: Charm++/Converse parallel runtime startup completed at 0.0185547 s
Info: 488.5 MB of memory in use based on /proc/self/stat
Info: Configuration file is string_sequential.tcl
Info: Working in the current directory /Scr/rcbernardi-tmp/Work/OMPdecarboxylase/Marcelo/QMMM_String_eABF_Tutorial/String_eABF
TCL: Suspending until startup complete.
Info: EXTENDED SYSTEM FILE   ./setup/image_6.xsc
Info: SIMULATION PARAMETERS:
Info: TIMESTEP               0.5
Info: NUMBER OF STEPS        0
Info: STEPS PER CYCLE        1
Info: PERIODIC CELL BASIS 1  77.9134 0 0
Info: PERIODIC CELL BASIS 2  0 77.9134 0
Info: PERIODIC CELL BASIS 3  0 0 77.9134
Info: PERIODIC CELL CENTER   0 0 0
Info: FIRST LDB TIMESTEP     1
Info: LAST LDB TIMESTEP     -1
Info: HOM BACKGROUND SCALING 1
Info: PME BACKGROUND SCALING 1
Info: MIN ATOMS PER PATCH    40
Info: INITIAL TEMPERATURE    300
Info: CENTER OF MASS MOVING INITIALLY? NO
Info: DIELECTRIC             1
Info: EXCLUDE                SCALED ONE-FOUR
Info: 1-4 ELECTROSTATICS SCALED BY 1
Info: MODIFIED 1-4 VDW PARAMETERS WILL BE USED
Info: NO DCD TRAJECTORY OUTPUT
Info: NO EXTENDED SYSTEM TRAJECTORY OUTPUT
Info: NO VELOCITY DCD OUTPUT
Info: NO FORCE DCD OUTPUT
Info: OUTPUT FILENAME        ./output/6/decarb.job0000
Info: BINARY OUTPUT FILES WILL BE USED
Info: RESTART FILENAME       ./output/6/decarb.job0000.restart
Info: RESTART FREQUENCY      100
Info: BINARY RESTART FILES WILL BE USED
Info: SWITCHING ACTIVE
Info: SWITCHING ON           12
Info: SWITCHING OFF          14
Info: PAIRLIST DISTANCE      15
Info: PAIRLIST SHRINK RATE   0.01
Info: PAIRLIST GROW RATE     0.01
Info: PAIRLIST TRIGGER       0.3
Info: PAIRLISTS PER CYCLE    2
Info: PAIRLISTS ENABLED
Info: MARGIN                 0
Info: HYDROGEN GROUP CUTOFF  2.5
Info: PATCH DIMENSION        17.5
Info: ENERGY OUTPUT STEPS    20
Info: CROSSTERM ENERGY INCLUDED IN DIHEDRAL
Info: TIMING OUTPUT STEPS    5
Info: QM FORCES ACTIVE
Info: QM SOFTWARE: mopac
Info: QM ATOM CHARGES FROM QM SOFTWARE: MULLIKEN
Info: QM EXECUTABLE PATH: /home/melomcr/Projects_melomcr/Programs/MOPAC_GPU/MOPAC2016.exe
Info: QM COLUMN: beta
Info: QM BOND COLUMN: occ
Info: QM WILL DETECT BONDS BETWEEN QM AND MM ATOMS.
Info: QM-MM BOND SCHEME: Charge Shift.
Info: QM Will use PSF charges.
Info: QM BASE DIRECTORY: /dev/shm/NAMD_SM_qmmm
Info: QM CONFIG LINE: PM7 XYZ T=2M 1SCF AUX LET GRAD QMMM THREADS=2
Info: QM CONFIG LINE: decarboxylase
Info: QM POINT CHARGES WILL BE SELECTED EVERY 1 STEPS.
Info: QM Point Charge Switching: ON.
Info: QM Point Charge SCHEME: none.
Info: QM executions per node: 1
Info: COLLECTIVE VARIABLES CALCULATION REQUESTED
Info: COLLECTIVE VARIABLES CONFIGURATION   ./setup/colvars_6.conf
Info: LANGEVIN DYNAMICS ACTIVE
Info: LANGEVIN TEMPERATURE   300
Info: LANGEVIN USING BBK INTEGRATOR
Info: LANGEVIN DAMPING COEFFICIENT IS 200 INVERSE PS
Info: LANGEVIN DYNAMICS APPLIED TO HYDROGENS
Info: PARTICLE MESH EWALD (PME) ACTIVE
Info: PME TOLERANCE               1e-05
Info: PME EWALD COEFFICIENT       0.192342
Info: PME INTERPOLATION ORDER     4
Info: PME GRID DIMENSIONS         80 80 80
Info: PME MAXIMUM GRID SPACING    1
Info: FULL ELECTROSTATIC EVALUATION FREQUENCY      1
Info: USING VERLET I (r-RESPA) MTS SCHEME.
Info: C1 SPLITTING OF LONG RANGE ELECTROSTATICS
Info: PLACING ATOMS IN PATCHES BY HYDROGEN GROUPS
Info: RANDOM NUMBER SEED     84739
Info: USE HYDROGEN BONDS?    NO
Info: COORDINATE PDB         decarboxylase.0.pdb
Info: STRUCTURE FILE         decarboxylase.0.psf
Info: PARAMETER file: CHARMM format!
Info: PARAMETERS             ./toppar/par_all36_prot.prm
Info: PARAMETERS             ./toppar/par_all36_cgenff.prm
Info: PARAMETERS             ./toppar/par_all36_na.prm
Info: PARAMETERS             ./toppar/par_all36_carb.prm
Info: PARAMETERS             ./toppar/par_all36_lipid.prm
Info: PARAMETERS             ./toppar/toppar_water_ions_namd.str
Info: PARAMETERS             ./toppar/ligand.str
Info: USING ARITHMETIC MEAN TO COMBINE L-J SIGMA PARAMETERS
Info: BINARY COORDINATES     ./setup/image_6.coor
Info: SKIPPING rtf SECTION IN STREAM FILE
Info: SKIPPING rtf SECTION IN STREAM FILE
Info: SUMMARY OF PARAMETERS:
Info: 912 BONDS
Info: 2656 ANGLES
Info: 6453 DIHEDRAL
Info: 190 IMPROPER
Info: 6 CROSSTERM
Info: 350 VDW
Info: 6 VDW_PAIRS
Info: 0 NBTHOLE_PAIRS
Info: Using the following PDB file for QM parameters: decarboxylase.0.pdb
Info: Number of QM atoms (excluding Dummy atoms): 35
Info: We found 3 QM-MM bonds.
Info: 1) Group ID: 1 ; Group size: 35 atoms ; Total PSF charge: -1
Info: MM-QM pair: 973:975 -> Value (distance or ratio): 1.09 (QM Group 0 ID 1)
Info: MM-QM pair: 1005:1007 -> Value (distance or ratio): 1.09 (QM Group 0 ID 1)
Info: MM-QM pair: 3293:3294 -> Value (distance or ratio): 0.99 (QM Group 0 ID 1)
Info: STRUCTURE SUMMARY:
Info: 48323 ATOMS
Info: 33339 BONDS
Info: 21050 ANGLES
Info: 8790 DIHEDRALS
Info: 563 IMPROPERS
Info: 213 CROSSTERMS
Info: 0 EXCLUSIONS
Info: 144969 DEGREES OF FREEDOM
Info: 16663 HYDROGEN GROUPS
Info: 4 ATOMS IN LARGEST HYDROGEN GROUP
Info: 16663 MIGRATION GROUPS
Info: 4 ATOMS IN LARGEST MIGRATION GROUP
Info: TOTAL MASS = 294061 amu
Info: TOTAL CHARGE = 1 e
Info: MASS DENSITY = 1.03243 g/cm^3
Info: ATOM DENSITY = 0.102169 atoms/A^3
Info: The QM region will remove 33 bonds, 52 angles, 61 dihedrals, 4 impropers and 0 crossterms.
Info: ADDED 63077 IMPLICIT EXCLUSIONS
Info: NONBONDED TABLE R-SQUARED SPACING: 0.0625
Info: NONBONDED TABLE SIZE: 769 POINTS
Info: REMOVING COM VELOCITY -0.0360575 0.0762284 0.0116674
TCL: Running for 5 steps
Info: List of ranks running QM simulations: 0.
ETITLE: TS BOND ANGLE DIHED IMPRP ELECT VDW BOUNDARY MISC KINETIC TOTAL TEMP POTENTIAL TOTAL3 TEMPAVG PRESSURE GPRESSURE VOLUME PRESSAVG GPRESSAVG
ENERGY: 0 15606.9687 9997.5990 1957.2688 126.3916 -194974.3036 16910.6187 0.0000 -160.1085 43210.4394 -107325.1258 299.9880 -150535.5653 -107230.3276 299.9880 -1367.6277 -1338.5737 472972.7199 -1367.6277 -1338.5737
TCL: Writing to files with basename ./output/6/decarb.job0000.drift0000.iter0000.
TCL: Running for 5 steps
TCL: Writing to files with basename ./output/6/decarb.job0000.drift0001.iter0000.
TCL: Running for 5 steps
TCL: Writing to files with basename ./output/6/decarb.job0000.drift0002.iter0000.
TCL: Running for 5 steps
ETITLE: TS BOND ANGLE DIHED IMPRP ELECT VDW BOUNDARY MISC KINETIC TOTAL TEMP POTENTIAL TOTAL3 TEMPAVG PRESSURE GPRESSURE VOLUME PRESSAVG GPRESSAVG
ENERGY: 20 15556.5484 9993.4315 1952.2762 124.9263 -194944.8428 16904.9365 0.0000 -198.0633 43392.5892 -107218.1980 301.2526 -150610.7872 -107096.4917 299.6467 -1557.5462 -1370.9517 472972.7199 -1398.0184 -1357.1494
TCL: Writing to files with basename ./output/6/decarb.job0000.drift0003.iter0000.
TCL: Running for 5 steps
ETITLE: TS BOND ANGLE DIHED IMPRP ELECT VDW BOUNDARY MISC KINETIC TOTAL TEMP POTENTIAL TOTAL3 TEMPAVG PRESSURE GPRESSURE VOLUME PRESSAVG GPRESSAVG
ENERGY: 20 15606.9687 9997.5990 1957.2688 126.3916 -194974.3036 16910.6187 0.0000 -160.1085 43210.4394 -107325.1258 299.9880 -150535.5653 -107230.3276 299.9880 -1367.6277 -1338.5737 472972.7199 -1367.6277 -1338.5737
TCL: Writing to files with basename ./output/6/decarb.job0000.drift0004.iter0000.
TCL: Running for 5 steps
TCL: Running for 5 steps
TCL: Running for 5 steps
ETITLE: TS BOND ANGLE DIHED IMPRP ELECT VDW BOUNDARY MISC KINETIC TOTAL TEMP POTENTIAL TOTAL3 TEMPAVG PRESSURE GPRESSURE VOLUME PRESSAVG GPRESSAVG
ENERGY: 40 15655.9794 10007.5678 1936.8720 116.0058 -194997.8599 16899.9234 0.0000 -280.6844 43171.4741 -107490.7219 299.7175 -150662.1960 -107502.2138 300.1149 -1390.1855 -1469.9228 472972.7199 -1544.5306 -1427.0497
TCL: Running for 5 steps
ETITLE: TS BOND ANGLE DIHED IMPRP ELECT VDW BOUNDARY MISC KINETIC TOTAL TEMP POTENTIAL TOTAL3 TEMPAVG PRESSURE GPRESSURE VOLUME PRESSAVG GPRESSAVG
ENERGY: 40 15655.9794 10007.5678 1936.8720 116.0058 -194997.8599 16899.9234 0.0000 -280.6834 43171.4741 -107490.7208 299.7175 -150662.1949 -107394.5810 299.7175 -1400.7299 -1475.9828 472972.7199 -1400.7299 -1475.9828
TCL: Running for 5 steps
TCL: Running for 5 steps
TCL: Running for 5 steps
ETITLE: TS BOND ANGLE DIHED IMPRP ELECT VDW BOUNDARY MISC KINETIC TOTAL TEMP POTENTIAL TOTAL3 TEMPAVG PRESSURE GPRESSURE VOLUME PRESSAVG GPRESSAVG
ENERGY: 60 15559.6600 9941.5288 1941.0552 110.9729 -194972.5418 16987.8820 0.0000 -202.6760 43318.4232 -107315.6959 300.7377 -150634.1191 -107234.6664 300.6361 -1393.4670 -1388.0735 472972.7199 -1397.8893 -1439.3267
TCL: Running for 5 steps
ETITLE: TS BOND ANGLE DIHED IMPRP ELECT VDW BOUNDARY MISC KINETIC TOTAL TEMP POTENTIAL TOTAL3 TEMPAVG PRESSURE GPRESSURE VOLUME PRESSAVG GPRESSAVG
ENERGY: 60 15559.6600 9941.5288 1941.0552 110.9729 -194972.5418 16987.8820 0.0000 -202.6598 43318.4232 -107315.6796 300.7377 -150634.1028 -107219.5120 300.7377 -1394.9693 -1389.4526 472972.7199 -1394.9693 -1389.4526
TCL: Running for 5 steps
TCL: Running for 5 steps
TCL: Running for 5 steps
ETITLE: TS BOND ANGLE DIHED IMPRP ELECT VDW BOUNDARY MISC KINETIC TOTAL TEMP POTENTIAL TOTAL3 TEMPAVG PRESSURE GPRESSURE VOLUME PRESSAVG GPRESSAVG
ENERGY: 80 15555.4251 9928.9724 1945.9080 110.8421 -194851.9398 16926.1109 0.0000 -147.8498 43078.3824 -107454.1486 299.0712 -150532.5311 -107365.4228 299.5890 -1610.7750 -1446.7852 472972.7199 -1382.2403 -1388.5887
TCL: Running for 5 steps
ETITLE: TS BOND ANGLE DIHED IMPRP ELECT VDW BOUNDARY MISC KINETIC TOTAL TEMP POTENTIAL TOTAL3 TEMPAVG PRESSURE GPRESSURE VOLUME PRESSAVG GPRESSAVG
ENERGY: 80 15555.4251 9928.9724 1945.9080 110.8421 -194851.9398 16926.1109 0.0000 -147.7238 43078.3824 -107454.0226 299.0712 -150532.4051 -107350.3091 299.0712 -1612.3597 -1449.2625 472972.7199 -1612.3597 -1449.2625
TCL: Running for 5 steps
TCL: Running for 5 steps
TCL: Running for 5 steps
ETITLE: TS BOND ANGLE DIHED IMPRP ELECT VDW BOUNDARY MISC KINETIC TOTAL TEMP POTENTIAL TOTAL3 TEMPAVG PRESSURE GPRESSURE VOLUME PRESSAVG GPRESSAVG
ENERGY: 100 15625.6351 10040.4909 1928.7520 117.7701 -194993.6995 16908.9959 0.0000 -158.9527 43621.8019 -106909.2062 302.8439 -150531.0081 -106726.9889 300.3784 -1724.0398 -1466.5169 472972.7199 -1569.9676 -1477.4434
TCL: Running for 5 steps
ETITLE: TS BOND ANGLE DIHED IMPRP ELECT VDW BOUNDARY MISC KINETIC TOTAL TEMP POTENTIAL TOTAL3 TEMPAVG PRESSURE GPRESSURE VOLUME PRESSAVG GPRESSAVG
ENERGY: 100 15625.6351 10040.4909 1928.7520 117.7701 -194993.6995 16908.9959 0.0000 -158.7716 43621.8019 -106909.0251 302.8439 -150530.8270 -106830.4313 302.8439 -1714.2091 -1462.0394 472972.7199 -1714.2091 -1462.0394
TCL: Running for 5 steps
TCL: Running for 5 steps
TCL: Running for 5 steps
ETITLE: TS BOND ANGLE DIHED IMPRP ELECT VDW BOUNDARY MISC KINETIC TOTAL TEMP POTENTIAL TOTAL3 TEMPAVG PRESSURE GPRESSURE VOLUME PRESSAVG GPRESSAVG
ENERGY: 120 15767.5823 9983.6935 1959.2391 109.1939 -194931.9692 16941.0164 0.0000 -109.3989 43166.5570 -107114.0859 299.6834 -150280.6429 -107065.8065 300.1240 -1616.8711 -1366.6794 472972.7199 -1472.7061 -1394.3873
TCL: Running for 5 steps
ETITLE: TS BOND ANGLE DIHED IMPRP ELECT VDW BOUNDARY MISC KINETIC TOTAL TEMP POTENTIAL TOTAL3 TEMPAVG PRESSURE GPRESSURE VOLUME PRESSAVG GPRESSAVG
ENERGY: 120 15767.5823 9983.6935 1959.2391 109.1939 -194931.9692 16941.0164 0.0000 -108.8689 43166.5570 -107113.5559 299.6834 -150280.1129 -107020.9592 299.6834 -1621.9667 -1369.0298 472972.7199 -1621.9667 -1369.0298
TCL: Running for 5 steps
TCL: Running for 5 steps
TCL: Running for 5 steps
ETITLE: TS BOND ANGLE DIHED IMPRP ELECT VDW BOUNDARY MISC KINETIC TOTAL TEMP POTENTIAL TOTAL3 TEMPAVG PRESSURE GPRESSURE VOLUME PRESSAVG GPRESSAVG
ENERGY: 140 15693.7583 10065.9666 1953.9262 126.7684 -195148.4517 16962.8301 0.0000 -72.6099 43198.4505 -107219.3614 299.9048 -150417.8119 -107053.0575 299.8198 -1663.4846 -1465.1278 472972.7199 -1322.0781 -1425.2096
TCL: Running for 5 steps
ETITLE: TS BOND ANGLE DIHED IMPRP ELECT VDW BOUNDARY MISC KINETIC TOTAL TEMP POTENTIAL TOTAL3 TEMPAVG PRESSURE GPRESSURE VOLUME PRESSAVG GPRESSAVG
ENERGY: 140 15693.7583 10065.9666 1953.9262 126.7684 -195148.4517 16962.8301 0.0000 -71.7910 43198.4505 -107218.5426 299.9048 -150416.9931 -107125.7005 299.9048 -1657.3448 -1463.1707 472972.7199 -1657.3448 -1463.1707
TCL: Running for 5 steps
TCL: Running for 5 steps
TCL: Running for 5 steps
ETITLE: TS BOND ANGLE DIHED IMPRP ELECT VDW BOUNDARY MISC KINETIC TOTAL TEMP POTENTIAL TOTAL3 TEMPAVG PRESSURE GPRESSURE VOLUME PRESSAVG GPRESSAVG
ENERGY: 160 15357.1318 10119.1813 1949.7450 127.4589 -194964.1291 17072.9910 0.0000 -68.7214 43292.3016 -107114.0409 300.5564 -150406.3425 -106986.4504 299.4584 -1277.2505 -1356.5223 472972.7199 -1388.5010 -1406.5964
TCL: Running for 5 steps
ETITLE: TS BOND ANGLE DIHED IMPRP ELECT VDW BOUNDARY MISC KINETIC TOTAL TEMP POTENTIAL TOTAL3 TEMPAVG PRESSURE GPRESSURE VOLUME PRESSAVG GPRESSAVG
ENERGY: 160 15357.1318 10119.1813 1949.7450 127.4589 -194964.1291 17072.9910 0.0000 -67.7863 43292.3016 -107113.1058 300.5564 -150405.4074 -107022.1073 300.5564 -1275.2094 -1356.5640 472972.7199 -1275.2094 -1356.5640
TCL: Running for 5 steps
TCL: Running for 5 steps
TCL: Running for 5 steps
ETITLE: TS BOND ANGLE DIHED IMPRP ELECT VDW BOUNDARY MISC KINETIC TOTAL TEMP POTENTIAL TOTAL3 TEMPAVG PRESSURE GPRESSURE VOLUME PRESSAVG GPRESSAVG
ENERGY: 180 15507.1143 10027.9527 1937.8530 116.1655 -194847.3445 17067.7458 0.0000 -47.7388 43044.3173 -107193.9348 298.8347 -150238.2521 -107124.7465 300.5717 -1149.0664 -1468.5626 472972.7199 -1353.1720 -1390.7281
TCL: Running for 5 steps
ETITLE: TS BOND ANGLE DIHED IMPRP ELECT VDW BOUNDARY MISC KINETIC TOTAL TEMP POTENTIAL TOTAL3 TEMPAVG PRESSURE GPRESSURE VOLUME PRESSAVG GPRESSAVG
ENERGY: 180 15507.1143 10027.9527 1937.8530 116.1655 -194847.3445 17067.7458 0.0000 -46.6755 43044.3173 -107192.8715 298.8347 -150237.1888 -107096.0252 298.8347 -1154.0372 -1473.5157 472972.7199 -1154.0372 -1473.5157
TCL: Running for 5 steps
TCL: Running for 5 steps
TCL: Running for 5 steps
ETITLE: TS BOND ANGLE DIHED IMPRP ELECT VDW BOUNDARY MISC KINETIC TOTAL TEMP POTENTIAL TOTAL3 TEMPAVG PRESSURE GPRESSURE VOLUME PRESSAVG GPRESSAVG
ENERGY: 200 15351.2069 10207.4703 1930.1705 113.6759 -195110.2722 17040.7698 0.0000 -67.1930 43221.7065 -107312.4653 300.0663 -150534.1719 -107251.5018 300.2886 -1080.9784 -1439.8442 472972.7199 -1461.7515 -1477.4035
TCL: Running for 5 steps
ETITLE: TS BOND ANGLE DIHED IMPRP ELECT VDW BOUNDARY MISC KINETIC TOTAL TEMP POTENTIAL TOTAL3 TEMPAVG PRESSURE GPRESSURE VOLUME PRESSAVG GPRESSAVG
ENERGY: 200 15351.2069 10207.4703 1930.1705 113.6759 -195110.2722 17040.7698 0.0000 -66.6582 43221.7065 -107311.9305 300.0663 -150533.6370 -107208.1771 300.0663 -1086.4482 -1442.4543 472972.7199 -1086.4482 -1442.4543
TCL: Running for 5 steps
TCL: Running for 5 steps
TCL: Running for 5 steps
ETITLE: TS BOND ANGLE DIHED IMPRP ELECT VDW BOUNDARY MISC KINETIC TOTAL TEMP POTENTIAL TOTAL3 TEMPAVG PRESSURE GPRESSURE VOLUME PRESSAVG GPRESSAVG
ENERGY: 220 15618.9584 10019.3981 1920.1748 125.7778 -195154.2419 16960.3706 0.0000 -139.5740 43393.7301 -107255.4062 301.2605 -150649.1363 -107150.2757 300.6510 -1724.7560 -1460.1142 472972.7199 -1437.3981 -1458.8872
TCL: Running for 5 steps
ETITLE: TS BOND ANGLE DIHED IMPRP ELECT VDW BOUNDARY MISC KINETIC TOTAL TEMP POTENTIAL TOTAL3 TEMPAVG PRESSURE GPRESSURE VOLUME PRESSAVG GPRESSAVG
ENERGY: 220 15618.9584 10019.3981 1920.1748 125.7778 -195154.2419 16960.3706 0.0000 -139.3657 43393.7301 -107255.1979 301.2605 -150648.9280 -107163.9710 301.2605 -1724.0420 -1462.7737 472972.7199 -1724.0420 -1462.7737
TCL: Writing to files with basename ./output/6/decarb.job0000.image0006.iter0000.
TCL: Running for 5 steps
TCL: Writing to files with basename ./output/6/decarb.job0000.drift0000.iter0001.
TCL: Running for 5 steps
TCL: Writing to files with basename ./output/6/decarb.job0000.drift0001.iter0001.
TCL: Running for 5 steps
ETITLE: TS BOND ANGLE DIHED IMPRP ELECT VDW BOUNDARY MISC KINETIC TOTAL TEMP POTENTIAL TOTAL3 TEMPAVG PRESSURE GPRESSURE VOLUME PRESSAVG GPRESSAVG
ENERGY: 240 15672.9174 10154.6960 1919.9748 115.1027 -195036.4596 16972.6116 0.0000 -211.2900 43244.5821 -107167.8650 300.2251 -150412.4471 -107095.0453 299.1068 -1349.1409 -1438.2829 472972.7199 -1256.6086 -1437.8786
TCL: Writing to files with basename ./output/6/decarb.job0000.drift0002.iter0001.
TCL: Running for 5 steps
ETITLE: TS BOND ANGLE DIHED IMPRP ELECT VDW BOUNDARY MISC KINETIC TOTAL TEMP POTENTIAL TOTAL3 TEMPAVG PRESSURE GPRESSURE VOLUME PRESSAVG GPRESSAVG
ENERGY: 240 15359.8598 10178.4486 1920.8431 120.1767 -195056.2168 16967.2233 0.0000 -142.1135 43038.5026 -107613.2763 298.7944 -150651.7788 -107506.5084 298.7944 -1235.1593 -1436.0427 472972.7199 -1235.1593 -1436.0427
TCL: Writing to files with basename ./output/6/decarb.job0000.drift0003.iter0001.
TCL: Running for 5 steps
TCL: Writing to files with basename ./output/6/decarb.job0000.drift0004.iter0001.
TCL: Running for 5 steps
TCL: Running for 5 steps
ETITLE: TS BOND ANGLE DIHED IMPRP ELECT VDW BOUNDARY MISC KINETIC TOTAL TEMP POTENTIAL TOTAL3 TEMPAVG PRESSURE GPRESSURE VOLUME PRESSAVG GPRESSAVG
ENERGY: 260 15597.1460 10083.4714 1927.0922 111.7054 -194986.2257 17005.2094 0.0000 -135.8496 43369.6790 -107027.7719 301.0935 -150397.4509 -106932.6480 299.3748 -1397.9270 -1353.8232 472972.7199 -1310.4704 -1421.3545
TCL: Running for 5 steps
ETITLE: TS BOND ANGLE DIHED IMPRP ELECT VDW BOUNDARY MISC KINETIC TOTAL TEMP POTENTIAL TOTAL3 TEMPAVG PRESSURE GPRESSURE VOLUME PRESSAVG GPRESSAVG
ENERGY: 260 15597.1460 10083.4714 1927.0922 111.7054 -194986.2257 17005.2094 0.0000 -135.8495 43369.6790 -107027.7718 301.0935 -150397.4508 -106950.2725 301.0935 -1396.2004 -1350.1420 472972.7199 -1396.2004 -1350.1420
TCL: Running for 5 steps
TCL: Running for 5 steps
TCL: Running for 5 steps
ETITLE: TS BOND ANGLE DIHED IMPRP ELECT VDW BOUNDARY MISC KINETIC TOTAL TEMP POTENTIAL TOTAL3 TEMPAVG PRESSURE GPRESSURE VOLUME PRESSAVG GPRESSAVG
ENERGY: 280 15444.3399 10155.2795 1942.5801 128.7253 -195253.5992 17144.9563 0.0000 -152.5957 43190.1479 -107400.1659 299.8472 -150590.3138 -107246.1038 299.2704 -1270.7121 -1209.7148 472972.7199 -1314.1959 -1294.4987
TCL: Running for 5 steps
ETITLE: TS BOND ANGLE DIHED IMPRP ELECT VDW BOUNDARY MISC KINETIC TOTAL TEMP POTENTIAL TOTAL3 TEMPAVG PRESSURE GPRESSURE VOLUME PRESSAVG GPRESSAVG
ENERGY: 280 15444.3399 10155.2795 1942.5801 128.7253 -195253.5992 17144.9563 0.0000 -152.5880 43190.1479 -107400.1582 299.8472 -150590.3062 -107305.3856 299.8472 -1264.9156 -1208.7505 472972.7199 -1264.9156 -1208.7505
TCL: Running for 5 steps
TCL: Running for 5 steps
TCL: Running for 5 steps
ETITLE: TS BOND ANGLE DIHED IMPRP ELECT VDW BOUNDARY MISC KINETIC TOTAL TEMP POTENTIAL TOTAL3 TEMPAVG PRESSURE GPRESSURE VOLUME PRESSAVG GPRESSAVG
ENERGY: 300 15657.0401 10118.2188 1930.3493 134.2273 -195217.2625 17250.3071 0.0000 -130.8485 42994.1836 -107263.7848 298.4867 -150257.9684 -107198.1552 299.4466 -1246.0323 -1207.4507 472972.7199 -1156.8486 -1208.8974
TCL: Running for 5 steps
ETITLE: TS BOND ANGLE DIHED IMPRP ELECT VDW BOUNDARY MISC KINETIC TOTAL TEMP POTENTIAL TOTAL3 TEMPAVG PRESSURE GPRESSURE VOLUME PRESSAVG GPRESSAVG
ENERGY: 300 15657.0401 10118.2188 1930.3493 134.2273 -195217.2625 17250.3071 0.0000 -130.7948 42994.1836 -107263.7311 298.4867 -150257.9147 -107172.7684 298.4867 -1248.5571 -1205.8230 472972.7199 -1248.5571 -1205.8230
TCL: Running for 5 steps
TCL: Running for 5 steps
TCL: Running for 5 steps
ETITLE: TS BOND ANGLE DIHED IMPRP ELECT VDW BOUNDARY MISC KINETIC TOTAL TEMP POTENTIAL TOTAL3 TEMPAVG PRESSURE GPRESSURE VOLUME PRESSAVG GPRESSAVG
ENERGY: 320 15538.7665 10042.9944 1948.8075 120.8162 -195239.6144 17322.4982 0.0000 -131.1627 43368.3019 -107028.5925 301.0840 -150396.8944 -106917.1465 301.7151 -1004.2284 -1174.0950 472972.7199 -1186.6387 -1196.5560
TCL: Running for 5 steps
ETITLE: TS BOND ANGLE DIHED IMPRP ELECT VDW BOUNDARY MISC KINETIC TOTAL TEMP POTENTIAL TOTAL3 TEMPAVG PRESSURE GPRESSURE VOLUME PRESSAVG GPRESSAVG
ENERGY: 320 15538.7665 10042.9944 1948.8075 120.8162 -195239.6144 17322.4982 0.0000 -130.8904 43368.3019 -107028.3201 301.0840 -150396.6220 -106931.2656 301.0840 -1002.9818 -1171.4612 472972.7199 -1002.9818 -1171.4612
TCL: Running for 5 steps
TCL: Running for 5 steps
TCL: Running for 5 steps
ETITLE: TS BOND ANGLE DIHED IMPRP ELECT VDW BOUNDARY MISC KINETIC TOTAL TEMP POTENTIAL TOTAL3 TEMPAVG PRESSURE GPRESSURE VOLUME PRESSAVG GPRESSAVG
ENERGY: 340 15596.7762 10053.8340 1932.9672 120.6173 -195212.1102 17342.6805 0.0000 -86.9132 43295.8691 -106956.2791 300.5811 -150252.1482 -106891.7891 300.2903 -1166.9865 -1214.0771 472972.7199 -1106.3706 -1183.6007
TCL: Running for 5 steps
ETITLE: TS BOND ANGLE DIHED IMPRP ELECT VDW BOUNDARY MISC KINETIC TOTAL TEMP POTENTIAL TOTAL3 TEMPAVG PRESSURE GPRESSURE VOLUME PRESSAVG GPRESSAVG
ENERGY: 340 15596.7762 10053.8340 1932.9672 120.6173 -195212.1102 17342.6805 0.0000 -86.1387 43295.8691 -106955.5046 300.5811 -150251.3737 -106861.3216 300.5811 -1170.3359 -1213.9340 472972.7199 -1170.3359 -1213.9340
TCL: Running for 5 steps
TCL: Running for 5 steps
TCL: Running for 5 steps
ETITLE: TS BOND ANGLE DIHED IMPRP ELECT VDW BOUNDARY MISC KINETIC TOTAL TEMP POTENTIAL TOTAL3 TEMPAVG PRESSURE GPRESSURE VOLUME PRESSAVG GPRESSAVG
ENERGY: 360 15783.9658 10082.8287 1925.6686 115.6669 -195500.0682 17285.9388 0.0000 -50.8582 43269.9442 -107086.9134 300.4011 -150356.8576 -106884.2482 300.6506 -1877.3641 -1382.6835 472972.7199 -1493.5309 -1310.6955
TCL: Running for 5 steps
ETITLE: TS BOND ANGLE DIHED IMPRP ELECT VDW BOUNDARY MISC KINETIC TOTAL TEMP POTENTIAL TOTAL3 TEMPAVG PRESSURE GPRESSURE VOLUME PRESSAVG GPRESSAVG
ENERGY: 360 15783.9658 10082.8287 1925.6686 115.6669 -195500.0682 17285.9388 0.0000 -49.3215 43269.9442 -107085.3767 300.4011 -150355.3209 -106985.0763 300.4011 -1868.1613 -1385.6169 472972.7199 -1868.1613 -1385.6169
TCL: Running for 5 steps
TCL: Running for 5 steps
TCL: Running for 5 steps
ETITLE: TS BOND ANGLE DIHED IMPRP ELECT VDW BOUNDARY MISC KINETIC TOTAL TEMP POTENTIAL TOTAL3 TEMPAVG PRESSURE GPRESSURE VOLUME PRESSAVG GPRESSAVG
ENERGY: 380 15709.4122 9973.9926 1909.5499 107.3048 -195288.2325 17264.8237 0.0000 -189.2728 43132.1297 -107380.2924 299.4444 -150512.4222 -107290.2944 299.3006 -1721.2699 -1274.8494 472972.7199 -1236.3955 -1306.3333
TCL: Running for 5 steps
ETITLE: TS BOND ANGLE DIHED IMPRP ELECT VDW BOUNDARY MISC KINETIC TOTAL TEMP POTENTIAL TOTAL3 TEMPAVG PRESSURE GPRESSURE VOLUME PRESSAVG GPRESSAVG
ENERGY: 380 15709.4122 9973.9926 1909.5499 107.3048 -195288.2325 17264.8237 0.0000 -187.3275 43132.1297 -107378.3472 299.4444 -150510.4769 -107283.3382 299.4444 -1722.8717 -1272.1256 472972.7199 -1722.8717 -1272.1256
TCL: Running for 5 steps
TCL: Running for 5 steps
TCL: Running for 5 steps
ETITLE: TS BOND ANGLE DIHED IMPRP ELECT VDW BOUNDARY MISC KINETIC TOTAL TEMP POTENTIAL TOTAL3 TEMPAVG PRESSURE GPRESSURE VOLUME PRESSAVG GPRESSAVG
ENERGY: 400 15620.1624 10084.1240 1911.7648 112.2936 -195466.2257 17266.7116 0.0000 -93.9103 43110.2109 -107454.8688 299.2922 -150565.0797 -107372.4708 299.6122 -1511.2490 -1234.6128 472972.7199 -1205.5522 -1272.5110
TCL: Running for 5 steps
