Info: SIMULATION PARAMETERS:
Info: TIMESTEP               0.5
Info: NUMBER OF STEPS        0
Info: STEPS PER CYCLE        1
Info: PERIODIC CELL BASIS 1  77.9134 0 0
Info: PERIODIC CELL BASIS 2  0 77.9134 0
Info: PERIODIC CELL BASIS 3  0 0 77.9134
Info: PERIODIC CELL CENTER   0 0 0
Info: FIRST LDB TIMESTEP     1
Info: LAST LDB TIMESTEP     -1
Info: HOM BACKGROUND SCALING 1
Info: PME BACKGROUND SCALING 1
Info: MIN ATOMS PER PATCH    40
Info: INITIAL TEMPERATURE    300
Info: CENTER OF MASS MOVING INITIALLY? NO
Info: DIELECTRIC             1
Info: EXCLUDE                SCALED ONE-FOUR
Info: 1-4 ELECTROSTATICS SCALED BY 1
Info: MODIFIED 1-4 VDW PARAMETERS WILL BE USED
Info: NO DCD TRAJECTORY OUTPUT
Info: NO EXTENDED SYSTEM TRAJECTORY OUTPUT
Info: NO VELOCITY DCD OUTPUT
Info: NO FORCE DCD OUTPUT
Info: OUTPUT FILENAME        ./output_eABF/4/decarb.job0000
Info: BINARY OUTPUT FILES WILL BE USED
Info: RESTART FILENAME       ./output_eABF/4/decarb.job0000.restart
Info: RESTART FREQUENCY      100
Info: BINARY RESTART FILES WILL BE USED
Info: SWITCHING ACTIVE
Info: SWITCHING ON           12
Info: SWITCHING OFF          14
Info: PAIRLIST DISTANCE      15
Info: PAIRLIST SHRINK RATE   0.01
Info: PAIRLIST GROW RATE     0.01
Info: PAIRLIST TRIGGER       0.3
Info: PAIRLISTS PER CYCLE    2
Info: PAIRLISTS ENABLED
Info: MARGIN                 0
Info: HYDROGEN GROUP CUTOFF  2.5
Info: PATCH DIMENSION        17.5
Info: ENERGY OUTPUT STEPS    20
Info: CROSSTERM ENERGY INCLUDED IN DIHEDRAL
Info: TIMING OUTPUT STEPS    5
Info: QM FORCES ACTIVE
Info: QM SOFTWARE: mopac
Info: QM ATOM CHARGES FROM QM SOFTWARE: MULLIKEN
Info: QM EXECUTABLE PATH: /home/melomcr/Projects_melomcr/Programs/MOPAC_GPU/MOPAC2016.exe
Info: QM COLUMN: beta
Info: QM BOND COLUMN: occ
Info: QM WILL DETECT BONDS BETWEEN QM AND MM ATOMS.
Info: QM-MM BOND SCHEME: Charge Shift.
Info: QM Will use PSF charges.
Info: QM BASE DIRECTORY: /dev/shm/NAMD_SM_qmmm
Info: QM CONFIG LINE: PM7 XYZ T=2M 1SCF AUX LET GRAD QMMM THREADS=2
Info: QM CONFIG LINE: decarboxylase
Info: QM POINT CHARGES WILL BE SELECTED EVERY 1 STEPS.
Info: QM Point Charge Switching: ON.
Info: QM Point Charge SCHEME: none.
Info: QM executions per node: 1
Info: COLLECTIVE VARIABLES CALCULATION REQUESTED
Info: COLLECTIVE VARIABLES CONFIGURATION   ./setup/pathCV.conf_eABF_tmp
Info: LANGEVIN DYNAMICS ACTIVE
Info: LANGEVIN TEMPERATURE   300
Info: LANGEVIN USING BBK INTEGRATOR
Info: LANGEVIN DAMPING COEFFICIENT IS 200 INVERSE PS
Info: LANGEVIN DYNAMICS APPLIED TO HYDROGENS
Info: PARTICLE MESH EWALD (PME) ACTIVE
Info: PME TOLERANCE               1e-05
Info: PME EWALD COEFFICIENT       0.192342
Info: PME INTERPOLATION ORDER     4
Info: PME GRID DIMENSIONS         80 80 80
Info: PME MAXIMUM GRID SPACING    1
Info: FULL ELECTROSTATIC EVALUATION FREQUENCY      1
Info: USING VERLET I (r-RESPA) MTS SCHEME.
Info: C1 SPLITTING OF LONG RANGE ELECTROSTATICS
Info: PLACING ATOMS IN PATCHES BY HYDROGEN GROUPS
Info: RANDOM NUMBER SEED     1196
Info: USE HYDROGEN BONDS?    NO
Info: COORDINATE PDB         decarboxylase.0.pdb
Info: STRUCTURE FILE         decarboxylase.0.psf
Info: PARAMETER file: CHARMM format!
Info: PARAMETERS             ./toppar/par_all36_prot.prm
Info: PARAMETERS             ./toppar/par_all36_cgenff.prm
Info: PARAMETERS             ./toppar/par_all36_na.prm
Info: PARAMETERS             ./toppar/par_all36_carb.prm
Info: PARAMETERS             ./toppar/par_all36_lipid.prm
Info: PARAMETERS             ./toppar/toppar_water_ions_namd.str
Info: PARAMETERS             ./toppar/ligand.str
Info: USING ARITHMETIC MEAN TO COMBINE L-J SIGMA PARAMETERS
Info: BINARY COORDINATES     ./string/string_4.coor
Info: SKIPPING rtf SECTION IN STREAM FILE
Info: SKIPPING rtf SECTION IN STREAM FILE
Info: SUMMARY OF PARAMETERS:
Info: 912 BONDS
Info: 2656 ANGLES
Info: 6453 DIHEDRAL
Info: 190 IMPROPER
Info: 6 CROSSTERM
Info: 350 VDW
Info: 6 VDW_PAIRS
Info: 0 NBTHOLE_PAIRS
Info: Using the following PDB file for QM parameters: decarboxylase.0.pdb
Info: Number of QM atoms (excluding Dummy atoms): 35
Info: We found 3 QM-MM bonds.
Info: 1) Group ID: 1 ; Group size: 35 atoms ; Total PSF charge: -1
Info: MM-QM pair: 973:975 -> Value (distance or ratio): 1.09 (QM Group 0 ID 1)
Info: MM-QM pair: 1005:1007 -> Value (distance or ratio): 1.09 (QM Group 0 ID 1)
Info: MM-QM pair: 3293:3294 -> Value (distance or ratio): 0.99 (QM Group 0 ID 1)
Info: STRUCTURE SUMMARY:
Info: 48323 ATOMS
Info: 33339 BONDS
Info: 21050 ANGLES
Info: 8790 DIHEDRALS
Info: 563 IMPROPERS
Info: 213 CROSSTERMS
Info: 0 EXCLUSIONS
Info: 144969 DEGREES OF FREEDOM
Info: 16663 HYDROGEN GROUPS
Info: 4 ATOMS IN LARGEST HYDROGEN GROUP
Info: 16663 MIGRATION GROUPS
Info: 4 ATOMS IN LARGEST MIGRATION GROUP
Info: TOTAL MASS = 294061 amu
Info: TOTAL CHARGE = 1 e
Info: MASS DENSITY = 1.03243 g/cm^3
Info: ATOM DENSITY = 0.102169 atoms/A^3
Info: The QM region will remove 33 bonds, 52 angles, 61 dihedrals, 4 impropers and 0 crossterms.
Info: ADDED 63077 IMPLICIT EXCLUSIONS
Info: NONBONDED TABLE R-SQUARED SPACING: 0.0625
Info: NONBONDED TABLE SIZE: 769 POINTS
Info: REMOVING COM VELOCITY 0.0111753 -0.0123139 0.0125315
TCL: Running for 10000 steps
Info: List of ranks running QM simulations: 0.
ETITLE: TS BOND ANGLE DIHED IMPRP ELECT VDW BOUNDARY MISC KINETIC TOTAL TEMP POTENTIAL TOTAL3 TEMPAVG PRESSURE GPRESSURE VOLUME PRESSAVG GPRESSAVG
ENERGY: 0 15600.0781 9954.5475 1930.5093 121.3403 -194635.1413 16984.9696 0.0000 -7.6565 43404.7630 -106646.5901 301.3371 -150051.3530 -106551.9625 301.3371 -1413.8574 -1360.3637 472972.7199 -1413.8574 -1360.3637
ENERGY: 2000 15630.5545 10134.1276 1891.6722 115.5285 -195931.8204 17491.2343 0.0000 -23.1237 43228.6792 -107463.1477 300.1147 -150691.8269 -107353.4967 299.9804 -1154.1147 -1274.0649 472972.7199 -1245.5084 -1188.6610
ENERGY: 4000 15766.0635 10213.6711 1887.7275 107.1836 -196843.2547 17952.0465 0.0000 -52.6091 43418.5460 -107550.6256 301.4328 -150969.1716 -107442.1231 301.8714 -1228.0316 -1113.2120 472972.7199 -1219.2453 -1097.4893
ENERGY: 6000 15573.8820 10183.2689 1941.7932 99.6389 -197023.4722 18433.6491 0.0000 -111.1101 43503.5667 -107398.7835 302.0231 -150902.3502 -107237.7128 300.5275 -533.9732 -666.2949 472972.7199 -706.5978 -734.2179
ENERGY: 8000 15752.0411 10181.5442 1909.5297 101.1750 -197947.7284 18955.0883 0.0000 -161.0180 42978.3203 -108231.0479 298.3765 -151209.3682 -108140.2014 299.3362 -680.2210 -545.6523 472972.7199 -408.1928 -544.1170
ENERGY: 10000 15679.8042 10376.6135 1912.9390 118.7557 -197976.5915 18616.0759 0.0000 -161.4224 43436.7461 -107997.0796 301.5592 -151433.8257 -107916.4765 299.7885 -555.7523 -682.7754 472972.7199 -969.1439 -745.2540
TCL: Writing to files with basename ./output_eABF/4/decarb.job0000.image0004.iter0000.
