Info: SIMULATION PARAMETERS:
Info: TIMESTEP               0.5
Info: NUMBER OF STEPS        0
Info: STEPS PER CYCLE        1
Info: PERIODIC CELL BASIS 1  77.9134 0 0
Info: PERIODIC CELL BASIS 2  0 77.9134 0
Info: PERIODIC CELL BASIS 3  0 0 77.9134
Info: PERIODIC CELL CENTER   0 0 0
Info: FIRST LDB TIMESTEP     1
Info: LAST LDB TIMESTEP     -1
Info: HOM BACKGROUND SCALING 1
Info: PME BACKGROUND SCALING 1
Info: MIN ATOMS PER PATCH    40
Info: INITIAL TEMPERATURE    300
Info: CENTER OF MASS MOVING INITIALLY? NO
Info: DIELECTRIC             1
Info: EXCLUDE                SCALED ONE-FOUR
Info: 1-4 ELECTROSTATICS SCALED BY 1
Info: MODIFIED 1-4 VDW PARAMETERS WILL BE USED
Info: NO DCD TRAJECTORY OUTPUT
Info: NO EXTENDED SYSTEM TRAJECTORY OUTPUT
Info: NO VELOCITY DCD OUTPUT
Info: NO FORCE DCD OUTPUT
Info: OUTPUT FILENAME        ./output/4/decarb.job0000
Info: BINARY OUTPUT FILES WILL BE USED
Info: RESTART FILENAME       ./output/4/decarb.job0000.restart
Info: RESTART FREQUENCY      100
Info: BINARY RESTART FILES WILL BE USED
Info: SWITCHING ACTIVE
Info: SWITCHING ON           12
Info: SWITCHING OFF          14
Info: PAIRLIST DISTANCE      15
Info: PAIRLIST SHRINK RATE   0.01
Info: PAIRLIST GROW RATE     0.01
Info: PAIRLIST TRIGGER       0.3
Info: PAIRLISTS PER CYCLE    2
Info: PAIRLISTS ENABLED
Info: MARGIN                 0
Info: HYDROGEN GROUP CUTOFF  2.5
Info: PATCH DIMENSION        17.5
Info: ENERGY OUTPUT STEPS    20
Info: CROSSTERM ENERGY INCLUDED IN DIHEDRAL
Info: TIMING OUTPUT STEPS    5
Info: QM FORCES ACTIVE
Info: QM SOFTWARE: mopac
Info: QM ATOM CHARGES FROM QM SOFTWARE: MULLIKEN
Info: QM EXECUTABLE PATH: /home/ubuntu/ORCA
Info: QM COLUMN: beta
Info: QM BOND COLUMN: occ
Info: QM WILL DETECT BONDS BETWEEN QM AND MM ATOMS.
Info: QM-MM BOND SCHEME: Charge Shift.
Info: QM Will use PSF charges.
Info: QM BASE DIRECTORY: /dev/shm/NAMD_SM_qmmm
Info: QM CONFIG LINE: PM7 XYZ T=2M 1SCF AUX LET GRAD QMMM THREADS=2
Info: QM CONFIG LINE: decarboxylase
Info: QM POINT CHARGES WILL BE SELECTED EVERY 1 STEPS.
Info: QM Point Charge Switching: ON.
Info: QM Point Charge SCHEME: none.
Info: QM executions per node: 1
Info: COLLECTIVE VARIABLES CALCULATION REQUESTED
Info: COLLECTIVE VARIABLES CONFIGURATION   ./setup/colvars_4.conf
Info: LANGEVIN DYNAMICS ACTIVE
Info: LANGEVIN TEMPERATURE   300
Info: LANGEVIN USING BBK INTEGRATOR
Info: LANGEVIN DAMPING COEFFICIENT IS 200 INVERSE PS
Info: LANGEVIN DYNAMICS APPLIED TO HYDROGENS
Info: PARTICLE MESH EWALD (PME) ACTIVE
Info: PME TOLERANCE               1e-05
Info: PME EWALD COEFFICIENT       0.192342
Info: PME INTERPOLATION ORDER     4
Info: PME GRID DIMENSIONS         80 80 80
Info: PME MAXIMUM GRID SPACING    1
Info: FULL ELECTROSTATIC EVALUATION FREQUENCY      1
Info: USING VERLET I (r-RESPA) MTS SCHEME.
Info: C1 SPLITTING OF LONG RANGE ELECTROSTATICS
Info: PLACING ATOMS IN PATCHES BY HYDROGEN GROUPS
Info: RANDOM NUMBER SEED     47680
Info: USE HYDROGEN BONDS?    NO
Info: COORDINATE PDB         decarboxylase.0.pdb
Info: STRUCTURE FILE         decarboxylase.0.psf
Info: PARAMETER file: CHARMM format!
Info: PARAMETERS             ./toppar/par_all36_prot.prm
Info: PARAMETERS             ./toppar/par_all36_cgenff.prm
Info: PARAMETERS             ./toppar/par_all36_na.prm
Info: PARAMETERS             ./toppar/par_all36_carb.prm
Info: PARAMETERS             ./toppar/par_all36_lipid.prm
Info: PARAMETERS             ./toppar/toppar_water_ions_namd.str
Info: PARAMETERS             ./toppar/ligand.str
Info: USING ARITHMETIC MEAN TO COMBINE L-J SIGMA PARAMETERS
Info: BINARY COORDINATES     ./setup/image_4.coor
Info: SKIPPING rtf SECTION IN STREAM FILE
Info: SKIPPING rtf SECTION IN STREAM FILE
Info: SUMMARY OF PARAMETERS:
Info: 912 BONDS
Info: 2656 ANGLES
Info: 6453 DIHEDRAL
Info: 190 IMPROPER
Info: 6 CROSSTERM
Info: 350 VDW
Info: 6 VDW_PAIRS
Info: 0 NBTHOLE_PAIRS
Info: Using the following PDB file for QM parameters: decarboxylase.0.pdb
Info: Number of QM atoms (excluding Dummy atoms): 35
Info: We found 3 QM-MM bonds.
Info: 1) Group ID: 1 ; Group size: 35 atoms ; Total PSF charge: -1
Info: MM-QM pair: 973:975 -> Value (distance or ratio): 1.09 (QM Group 0 ID 1)
Info: MM-QM pair: 1005:1007 -> Value (distance or ratio): 1.09 (QM Group 0 ID 1)
Info: MM-QM pair: 3293:3294 -> Value (distance or ratio): 0.99 (QM Group 0 ID 1)
Info: STRUCTURE SUMMARY:
Info: 48323 ATOMS
Info: 33339 BONDS
Info: 21050 ANGLES
Info: 8790 DIHEDRALS
Info: 563 IMPROPERS
Info: 213 CROSSTERMS
Info: 0 EXCLUSIONS
Info: 144969 DEGREES OF FREEDOM
Info: 16663 HYDROGEN GROUPS
Info: 4 ATOMS IN LARGEST HYDROGEN GROUP
Info: 16663 MIGRATION GROUPS
Info: 4 ATOMS IN LARGEST MIGRATION GROUP
Info: TOTAL MASS = 294061 amu
Info: TOTAL CHARGE = 1 e
Info: MASS DENSITY = 1.03243 g/cm^3
Info: ATOM DENSITY = 0.102169 atoms/A^3
Info: The QM region will remove 33 bonds, 52 angles, 61 dihedrals, 4 impropers and 0 crossterms.
Info: ADDED 63077 IMPLICIT EXCLUSIONS
Info: NONBONDED TABLE R-SQUARED SPACING: 0.0625
Info: NONBONDED TABLE SIZE: 769 POINTS
Info: REMOVING COM VELOCITY -0.00390443 -0.0321674 -0.0230529
TCL: Running for 5 steps
Info: List of ranks running QM simulations: 0.
Info: NAMD 2.12 for Linux-x86_64-MPI
Info: Please visit http://www.ks.uiuc.edu/Research/namd/
Info: for updates, documentation, and support information.
Info: Please cite Phillips et al., J. Comp. Chem. 26:1781-1802 (2005)
Info: in all publications reporting results obtained with NAMD.
Info: Based on Charm++/Converse 60800 for mpi-linux-x86_64
Info: Built Mon Mar 12 11:43:07 CDT 2018 by melomcr on amsterdam.ks.uiuc.edu
Info: 1 NAMD  2.12  Linux-x86_64-MPI  1    hanoi.ks.uiuc.edu  melomcr
Info: Running on 1 processors, 1 nodes, 1 physical nodes.
Info: CPU topology information available.
Info: Charm++/Converse parallel runtime startup completed at 0.014546 s
Info: 488.5 MB of memory in use based on /proc/self/stat
Info: Configuration file is string_sequential.tcl
Info: Working in the current directory /Scr/rcbernardi-tmp/Work/OMPdecarboxylase/Marcelo/QMMM_String_eABF_Tutorial/String_eABF
TCL: Suspending until startup complete.
Info: EXTENDED SYSTEM FILE   ./setup/image_4.xsc
Info: SIMULATION PARAMETERS:
Info: TIMESTEP               0.5
Info: NUMBER OF STEPS        0
Info: STEPS PER CYCLE        1
Info: PERIODIC CELL BASIS 1  77.9134 0 0
Info: PERIODIC CELL BASIS 2  0 77.9134 0
Info: PERIODIC CELL BASIS 3  0 0 77.9134
Info: PERIODIC CELL CENTER   0 0 0
Info: FIRST LDB TIMESTEP     1
Info: LAST LDB TIMESTEP     -1
Info: HOM BACKGROUND SCALING 1
Info: PME BACKGROUND SCALING 1
Info: MIN ATOMS PER PATCH    40
Info: INITIAL TEMPERATURE    300
Info: CENTER OF MASS MOVING INITIALLY? NO
Info: DIELECTRIC             1
Info: EXCLUDE                SCALED ONE-FOUR
Info: 1-4 ELECTROSTATICS SCALED BY 1
Info: MODIFIED 1-4 VDW PARAMETERS WILL BE USED
Info: NO DCD TRAJECTORY OUTPUT
Info: NO EXTENDED SYSTEM TRAJECTORY OUTPUT
Info: NO VELOCITY DCD OUTPUT
Info: NO FORCE DCD OUTPUT
Info: OUTPUT FILENAME        ./output/4/decarb.job0000
Info: BINARY OUTPUT FILES WILL BE USED
Info: RESTART FILENAME       ./output/4/decarb.job0000.restart
Info: RESTART FREQUENCY      100
Info: BINARY RESTART FILES WILL BE USED
Info: SWITCHING ACTIVE
Info: SWITCHING ON           12
Info: SWITCHING OFF          14
Info: PAIRLIST DISTANCE      15
Info: PAIRLIST SHRINK RATE   0.01
Info: PAIRLIST GROW RATE     0.01
Info: PAIRLIST TRIGGER       0.3
Info: PAIRLISTS PER CYCLE    2
Info: PAIRLISTS ENABLED
Info: MARGIN                 0
Info: HYDROGEN GROUP CUTOFF  2.5
Info: PATCH DIMENSION        17.5
Info: ENERGY OUTPUT STEPS    20
Info: CROSSTERM ENERGY INCLUDED IN DIHEDRAL
Info: TIMING OUTPUT STEPS    5
Info: QM FORCES ACTIVE
Info: QM SOFTWARE: mopac
Info: QM ATOM CHARGES FROM QM SOFTWARE: MULLIKEN
Info: QM EXECUTABLE PATH: /home/melomcr/Projects_melomcr/Programs/MOPAC_GPU/MOPAC2016.exe
Info: QM COLUMN: beta
Info: QM BOND COLUMN: occ
Info: QM WILL DETECT BONDS BETWEEN QM AND MM ATOMS.
Info: QM-MM BOND SCHEME: Charge Shift.
Info: QM Will use PSF charges.
Info: QM BASE DIRECTORY: /dev/shm/NAMD_SM_qmmm
Info: QM CONFIG LINE: PM7 XYZ T=2M 1SCF AUX LET GRAD QMMM THREADS=2
Info: QM CONFIG LINE: decarboxylase
Info: QM POINT CHARGES WILL BE SELECTED EVERY 1 STEPS.
Info: QM Point Charge Switching: ON.
Info: QM Point Charge SCHEME: none.
Info: QM executions per node: 1
Info: COLLECTIVE VARIABLES CALCULATION REQUESTED
Info: COLLECTIVE VARIABLES CONFIGURATION   ./setup/colvars_4.conf
Info: LANGEVIN DYNAMICS ACTIVE
Info: LANGEVIN TEMPERATURE   300
Info: LANGEVIN USING BBK INTEGRATOR
Info: LANGEVIN DAMPING COEFFICIENT IS 200 INVERSE PS
Info: LANGEVIN DYNAMICS APPLIED TO HYDROGENS
Info: PARTICLE MESH EWALD (PME) ACTIVE
Info: PME TOLERANCE               1e-05
Info: PME EWALD COEFFICIENT       0.192342
Info: PME INTERPOLATION ORDER     4
Info: PME GRID DIMENSIONS         80 80 80
Info: PME MAXIMUM GRID SPACING    1
Info: FULL ELECTROSTATIC EVALUATION FREQUENCY      1
Info: USING VERLET I (r-RESPA) MTS SCHEME.
Info: C1 SPLITTING OF LONG RANGE ELECTROSTATICS
Info: PLACING ATOMS IN PATCHES BY HYDROGEN GROUPS
Info: RANDOM NUMBER SEED     43992
Info: USE HYDROGEN BONDS?    NO
Info: COORDINATE PDB         decarboxylase.0.pdb
Info: STRUCTURE FILE         decarboxylase.0.psf
Info: PARAMETER file: CHARMM format!
Info: PARAMETERS             ./toppar/par_all36_prot.prm
Info: PARAMETERS             ./toppar/par_all36_cgenff.prm
Info: PARAMETERS             ./toppar/par_all36_na.prm
Info: PARAMETERS             ./toppar/par_all36_carb.prm
Info: PARAMETERS             ./toppar/par_all36_lipid.prm
Info: PARAMETERS             ./toppar/toppar_water_ions_namd.str
Info: PARAMETERS             ./toppar/ligand.str
Info: USING ARITHMETIC MEAN TO COMBINE L-J SIGMA PARAMETERS
Info: BINARY COORDINATES     ./setup/image_4.coor
Info: SKIPPING rtf SECTION IN STREAM FILE
Info: SKIPPING rtf SECTION IN STREAM FILE
Info: SUMMARY OF PARAMETERS:
Info: 912 BONDS
Info: 2656 ANGLES
Info: 6453 DIHEDRAL
Info: 190 IMPROPER
Info: 6 CROSSTERM
Info: 350 VDW
Info: 6 VDW_PAIRS
Info: 0 NBTHOLE_PAIRS
Info: Using the following PDB file for QM parameters: decarboxylase.0.pdb
Info: Number of QM atoms (excluding Dummy atoms): 35
Info: We found 3 QM-MM bonds.
Info: 1) Group ID: 1 ; Group size: 35 atoms ; Total PSF charge: -1
Info: MM-QM pair: 973:975 -> Value (distance or ratio): 1.09 (QM Group 0 ID 1)
Info: MM-QM pair: 1005:1007 -> Value (distance or ratio): 1.09 (QM Group 0 ID 1)
Info: MM-QM pair: 3293:3294 -> Value (distance or ratio): 0.99 (QM Group 0 ID 1)
Info: STRUCTURE SUMMARY:
Info: 48323 ATOMS
Info: 33339 BONDS
Info: 21050 ANGLES
Info: 8790 DIHEDRALS
Info: 563 IMPROPERS
Info: 213 CROSSTERMS
Info: 0 EXCLUSIONS
Info: 144969 DEGREES OF FREEDOM
Info: 16663 HYDROGEN GROUPS
Info: 4 ATOMS IN LARGEST HYDROGEN GROUP
Info: 16663 MIGRATION GROUPS
Info: 4 ATOMS IN LARGEST MIGRATION GROUP
Info: TOTAL MASS = 294061 amu
Info: TOTAL CHARGE = 1 e
Info: MASS DENSITY = 1.03243 g/cm^3
Info: ATOM DENSITY = 0.102169 atoms/A^3
Info: The QM region will remove 33 bonds, 52 angles, 61 dihedrals, 4 impropers and 0 crossterms.
Info: ADDED 63077 IMPLICIT EXCLUSIONS
Info: NONBONDED TABLE R-SQUARED SPACING: 0.0625
Info: NONBONDED TABLE SIZE: 769 POINTS
Info: REMOVING COM VELOCITY -0.020097 -0.00421865 -0.0471579
TCL: Running for 5 steps
Info: List of ranks running QM simulations: 0.
ETITLE: TS BOND ANGLE DIHED IMPRP ELECT VDW BOUNDARY MISC KINETIC TOTAL TEMP POTENTIAL TOTAL3 TEMPAVG PRESSURE GPRESSURE VOLUME PRESSAVG GPRESSAVG
ENERGY: 0 688.3933 1810.7388 1927.2355 113.0692 -174306.3298 14806.0783 0.0000 -141.0816 42992.7680 -112109.1285 298.4768 -155101.8965 -112062.4356 298.4768 23200.6725 101.8899 472972.7199 23200.6725 101.8899
TCL: Writing to files with basename ./output/4/decarb.job0000.drift0000.iter0000.
TCL: Running for 5 steps
TCL: Writing to files with basename ./output/4/decarb.job0000.drift0001.iter0000.
TCL: Running for 5 steps
TCL: Writing to files with basename ./output/4/decarb.job0000.drift0002.iter0000.
TCL: Running for 5 steps
ETITLE: TS BOND ANGLE DIHED IMPRP ELECT VDW BOUNDARY MISC KINETIC TOTAL TEMP POTENTIAL TOTAL3 TEMPAVG PRESSURE GPRESSURE VOLUME PRESSAVG GPRESSAVG
ENERGY: 20 13606.1817 4149.8998 1924.6696 117.0388 -184212.2433 15080.5088 0.0000 -139.5644 39792.1748 -109681.3344 276.2568 -149473.5092 -109483.1999 285.9133 1772.8265 -1201.4898 472972.7199 14206.5590 -437.9888
TCL: Writing to files with basename ./output/4/decarb.job0000.drift0003.iter0000.
TCL: Running for 5 steps
ETITLE: TS BOND ANGLE DIHED IMPRP ELECT VDW BOUNDARY MISC KINETIC TOTAL TEMP POTENTIAL TOTAL3 TEMPAVG PRESSURE GPRESSURE VOLUME PRESSAVG GPRESSAVG
ENERGY: 20 688.3933 1810.7388 1927.2355 113.0692 -174306.3298 14806.0783 0.0000 -141.0816 42992.7680 -112109.1285 298.4768 -155101.8965 -112062.4356 298.4768 23200.6725 101.8899 472972.7199 23200.6725 101.8899
TCL: Writing to files with basename ./output/4/decarb.job0000.drift0004.iter0000.
TCL: Running for 5 steps
TCL: Running for 5 steps
TCL: Running for 5 steps
ETITLE: TS BOND ANGLE DIHED IMPRP ELECT VDW BOUNDARY MISC KINETIC TOTAL TEMP POTENTIAL TOTAL3 TEMPAVG PRESSURE GPRESSURE VOLUME PRESSAVG GPRESSAVG
ENERGY: 40 11331.8112 11768.3851 1931.3683 117.1246 -190322.4601 15085.1481 0.0000 -63.6207 43463.3463 -106688.8972 301.7438 -150152.2435 -106762.4900 291.5153 6353.0075 -1902.6280 472972.7199 -2405.6479 -1881.5312
TCL: Running for 5 steps
ETITLE: TS BOND ANGLE DIHED IMPRP ELECT VDW BOUNDARY MISC KINETIC TOTAL TEMP POTENTIAL TOTAL3 TEMPAVG PRESSURE GPRESSURE VOLUME PRESSAVG GPRESSAVG
ENERGY: 40 11331.8112 11768.3851 1931.3683 117.1246 -190322.4601 15085.1481 0.0000 -63.6203 43463.3463 -106688.8967 301.7438 -150152.2431 -106735.5961 301.7438 6350.3726 -1901.3007 472972.7199 6350.3726 -1901.3007
TCL: Running for 5 steps
TCL: Running for 5 steps
TCL: Running for 5 steps
ETITLE: TS BOND ANGLE DIHED IMPRP ELECT VDW BOUNDARY MISC KINETIC TOTAL TEMP POTENTIAL TOTAL3 TEMPAVG PRESSURE GPRESSURE VOLUME PRESSAVG GPRESSAVG
ENERGY: 60 14075.6600 8882.8481 1909.5203 106.9986 -189787.7095 15184.5345 0.0000 -27.7332 43343.5384 -106312.3428 300.9121 -149655.8812 -106221.1784 299.4214 737.9480 -1814.2065 472972.7199 -2097.9675 -2102.2381
TCL: Running for 5 steps
ETITLE: TS BOND ANGLE DIHED IMPRP ELECT VDW BOUNDARY MISC KINETIC TOTAL TEMP POTENTIAL TOTAL3 TEMPAVG PRESSURE GPRESSURE VOLUME PRESSAVG GPRESSAVG
ENERGY: 60 14075.6600 8882.8481 1909.5203 106.9986 -189787.7095 15184.5345 0.0000 -27.7202 43343.5384 -106312.3299 300.9121 -149655.8683 -106263.8151 300.9121 742.1251 -1812.2385 472972.7199 742.1251 -1812.2385
TCL: Running for 5 steps
TCL: Running for 5 steps
TCL: Running for 5 steps
ETITLE: TS BOND ANGLE DIHED IMPRP ELECT VDW BOUNDARY MISC KINETIC TOTAL TEMP POTENTIAL TOTAL3 TEMPAVG PRESSURE GPRESSURE VOLUME PRESSAVG GPRESSAVG
ENERGY: 80 15052.5820 9983.1897 1897.5809 115.7280 -191993.3839 15297.6039 0.0000 15.0377 43092.3377 -106539.3240 299.1681 -149631.6617 -106459.9769 300.1648 -1341.5315 -2048.6563 472972.7199 -1797.9217 -2018.7787
TCL: Running for 5 steps
ETITLE: TS BOND ANGLE DIHED IMPRP ELECT VDW BOUNDARY MISC KINETIC TOTAL TEMP POTENTIAL TOTAL3 TEMPAVG PRESSURE GPRESSURE VOLUME PRESSAVG GPRESSAVG
ENERGY: 80 15052.5820 9983.1897 1897.5809 115.7280 -191993.3839 15297.6039 0.0000 15.0904 43092.3377 -106539.2712 299.1681 -149631.6090 -106449.6645 299.1681 -1342.5734 -2046.1521 472972.7199 -1342.5734 -2046.1521
TCL: Running for 5 steps
TCL: Running for 5 steps
TCL: Running for 5 steps
ETITLE: TS BOND ANGLE DIHED IMPRP ELECT VDW BOUNDARY MISC KINETIC TOTAL TEMP POTENTIAL TOTAL3 TEMPAVG PRESSURE GPRESSURE VOLUME PRESSAVG GPRESSAVG
ENERGY: 100 15311.7873 9711.4120 1915.3354 114.9493 -192350.8374 15495.5211 0.0000 -20.4796 43266.9272 -106555.3848 300.3802 -149822.3120 -106431.6871 299.0092 -2016.6794 -2019.5150 472972.7199 -2114.5192 -2085.4668
TCL: Running for 5 steps
ETITLE: TS BOND ANGLE DIHED IMPRP ELECT VDW BOUNDARY MISC KINETIC TOTAL TEMP POTENTIAL TOTAL3 TEMPAVG PRESSURE GPRESSURE VOLUME PRESSAVG GPRESSAVG
ENERGY: 100 15311.7873 9711.4120 1915.3354 114.9493 -192350.8374 15495.5211 0.0000 -20.3412 43266.9272 -106555.2464 300.3802 -149822.1736 -106467.4352 300.3802 -2013.3001 -2017.4708 472972.7199 -2013.3001 -2017.4708
TCL: Running for 5 steps
TCL: Running for 5 steps
TCL: Running for 5 steps
ETITLE: TS BOND ANGLE DIHED IMPRP ELECT VDW BOUNDARY MISC KINETIC TOTAL TEMP POTENTIAL TOTAL3 TEMPAVG PRESSURE GPRESSURE VOLUME PRESSAVG GPRESSAVG
ENERGY: 120 15491.3720 9868.3563 1916.6774 116.1931 -192483.8173 15564.7431 0.0000 -64.0704 42762.3207 -106828.2251 296.8770 -149590.5458 -106766.3366 299.9153 -1990.1951 -2118.5049 472972.7199 -2065.9849 -2064.0417
TCL: Running for 5 steps
ETITLE: TS BOND ANGLE DIHED IMPRP ELECT VDW BOUNDARY MISC KINETIC TOTAL TEMP POTENTIAL TOTAL3 TEMPAVG PRESSURE GPRESSURE VOLUME PRESSAVG GPRESSAVG
ENERGY: 120 15491.3720 9868.3563 1916.6774 116.1931 -192483.8173 15564.7431 0.0000 -63.7681 42762.3207 -106827.9227 296.8770 -149590.2434 -106725.8272 296.8770 -1994.3462 -2118.3803 472972.7199 -1994.3462 -2118.3803
TCL: Running for 5 steps
TCL: Running for 5 steps
TCL: Running for 5 steps
ETITLE: TS BOND ANGLE DIHED IMPRP ELECT VDW BOUNDARY MISC KINETIC TOTAL TEMP POTENTIAL TOTAL3 TEMPAVG PRESSURE GPRESSURE VOLUME PRESSAVG GPRESSAVG
ENERGY: 140 15370.7395 9748.9305 1924.8488 112.7606 -192395.3762 15602.7818 0.0000 11.9735 43326.8275 -106296.5141 300.7961 -149623.3417 -106181.6651 299.8338 -1857.8410 -1978.1327 472972.7199 -2061.9392 -2060.4911
TCL: Running for 5 steps
ETITLE: TS BOND ANGLE DIHED IMPRP ELECT VDW BOUNDARY MISC KINETIC TOTAL TEMP POTENTIAL TOTAL3 TEMPAVG PRESSURE GPRESSURE VOLUME PRESSAVG GPRESSAVG
ENERGY: 140 15370.7395 9748.9305 1924.8488 112.7606 -192395.3762 15602.7818 0.0000 12.5777 43326.8275 -106295.9098 300.7961 -149622.7374 -106205.7018 300.7961 -1856.0525 -1975.0699 472972.7199 -1856.0525 -1975.0699
TCL: Running for 5 steps
TCL: Running for 5 steps
TCL: Running for 5 steps
ETITLE: TS BOND ANGLE DIHED IMPRP ELECT VDW BOUNDARY MISC KINETIC TOTAL TEMP POTENTIAL TOTAL3 TEMPAVG PRESSURE GPRESSURE VOLUME PRESSAVG GPRESSAVG
ENERGY: 160 15393.0968 9955.3553 1919.8198 101.4278 -192567.8718 15576.5364 0.0000 -65.4894 43432.1502 -106254.9749 301.5273 -149687.1251 -106218.0075 300.3719 -1810.9459 -1945.1368 472972.7199 -1867.3403 -1987.0334
TCL: Running for 5 steps
ETITLE: TS BOND ANGLE DIHED IMPRP ELECT VDW BOUNDARY MISC KINETIC TOTAL TEMP POTENTIAL TOTAL3 TEMPAVG PRESSURE GPRESSURE VOLUME PRESSAVG GPRESSAVG
ENERGY: 160 15393.0968 9955.3553 1919.8198 101.4278 -192567.8718 15576.5364 0.0000 -65.2143 43432.1502 -106254.6999 301.5273 -149686.8501 -106165.6613 301.5273 -1816.1211 -1946.1572 472972.7199 -1816.1211 -1946.1572
TCL: Running for 5 steps
TCL: Running for 5 steps
TCL: Running for 5 steps
ETITLE: TS BOND ANGLE DIHED IMPRP ELECT VDW BOUNDARY MISC KINETIC TOTAL TEMP POTENTIAL TOTAL3 TEMPAVG PRESSURE GPRESSURE VOLUME PRESSAVG GPRESSAVG
ENERGY: 180 15296.3788 9782.5619 1915.1636 110.9829 -192510.6484 15669.0006 0.0000 62.5261 43102.7692 -106571.2653 299.2405 -149674.0345 -106429.4231 300.5126 -1551.5839 -1868.6154 472972.7199 -1914.0157 -1909.8072
TCL: Running for 5 steps
ETITLE: TS BOND ANGLE DIHED IMPRP ELECT VDW BOUNDARY MISC KINETIC TOTAL TEMP POTENTIAL TOTAL3 TEMPAVG PRESSURE GPRESSURE VOLUME PRESSAVG GPRESSAVG
ENERGY: 180 15296.3788 9782.5619 1915.1636 110.9829 -192510.6484 15669.0006 0.0000 62.8139 43102.7692 -106570.9775 299.2405 -149673.7467 -106465.8022 299.2405 -1547.9805 -1867.6584 472972.7199 -1547.9805 -1867.6584
TCL: Running for 5 steps
TCL: Running for 5 steps
TCL: Running for 5 steps
ETITLE: TS BOND ANGLE DIHED IMPRP ELECT VDW BOUNDARY MISC KINETIC TOTAL TEMP POTENTIAL TOTAL3 TEMPAVG PRESSURE GPRESSURE VOLUME PRESSAVG GPRESSAVG
ENERGY: 200 15562.8784 9772.0292 1926.8051 113.4670 -192985.5695 15689.3193 0.0000 -0.3006 43088.2353 -106833.1358 299.1396 -149921.3711 -106711.8501 300.4867 -2298.6147 -1991.0428 472972.7199 -1921.2280 -1923.2271
TCL: Running for 5 steps
ETITLE: TS BOND ANGLE DIHED IMPRP ELECT VDW BOUNDARY MISC KINETIC TOTAL TEMP POTENTIAL TOTAL3 TEMPAVG PRESSURE GPRESSURE VOLUME PRESSAVG GPRESSAVG
ENERGY: 200 15562.8784 9772.0292 1926.8051 113.4670 -192985.5695 15689.3193 0.0000 -0.1111 43088.2353 -106832.9463 299.1396 -149921.1816 -106727.4152 299.1396 -2296.6892 -1989.7981 472972.7199 -2296.6892 -1989.7981
TCL: Running for 5 steps
TCL: Running for 5 steps
TCL: Running for 5 steps
ETITLE: TS BOND ANGLE DIHED IMPRP ELECT VDW BOUNDARY MISC KINETIC TOTAL TEMP POTENTIAL TOTAL3 TEMPAVG PRESSURE GPRESSURE VOLUME PRESSAVG GPRESSAVG
ENERGY: 220 15646.9744 9798.8185 1914.1311 116.0531 -193076.9928 15737.7444 0.0000 16.8080 43185.0446 -106661.4186 299.8117 -149846.4633 -106511.2331 300.0477 -2245.1292 -1940.3317 472972.7199 -1926.1765 -1960.9302
TCL: Running for 5 steps
ETITLE: TS BOND ANGLE DIHED IMPRP ELECT VDW BOUNDARY MISC KINETIC TOTAL TEMP POTENTIAL TOTAL3 TEMPAVG PRESSURE GPRESSURE VOLUME PRESSAVG GPRESSAVG
ENERGY: 220 15646.9744 9798.8185 1914.1311 116.0531 -193076.9928 15737.7444 0.0000 17.0589 43185.0446 -106661.1678 299.8117 -149846.2125 -106572.0349 299.8117 -2237.7978 -1939.7544 472972.7199 -2237.7978 -1939.7544
TCL: Writing to files with basename ./output/4/decarb.job0000.image0004.iter0000.
TCL: Running for 5 steps
TCL: Writing to files with basename ./output/4/decarb.job0000.drift0000.iter0001.
TCL: Running for 5 steps
TCL: Writing to files with basename ./output/4/decarb.job0000.drift0001.iter0001.
TCL: Running for 5 steps
ETITLE: TS BOND ANGLE DIHED IMPRP ELECT VDW BOUNDARY MISC KINETIC TOTAL TEMP POTENTIAL TOTAL3 TEMPAVG PRESSURE GPRESSURE VOLUME PRESSAVG GPRESSAVG
ENERGY: 240 15437.5933 9907.8349 1927.4048 107.8555 -192947.7143 15838.7295 0.0000 39.1758 43230.5964 -106458.5242 300.1280 -149689.1206 -106355.2287 300.1157 -1753.5244 -1824.5425 472972.7199 -1579.8426 -1848.8362
TCL: Writing to files with basename ./output/4/decarb.job0000.drift0002.iter0001.
TCL: Running for 5 steps
ETITLE: TS BOND ANGLE DIHED IMPRP ELECT VDW BOUNDARY MISC KINETIC TOTAL TEMP POTENTIAL TOTAL3 TEMPAVG PRESSURE GPRESSURE VOLUME PRESSAVG GPRESSAVG
ENERGY: 240 15429.0579 9904.0618 1921.5905 112.1671 -192889.8799 15788.8372 0.0000 63.9405 43279.5265 -106390.6983 300.4677 -149670.2248 -106310.4438 300.4677 -1528.9542 -1863.8184 472972.7199 -1528.9542 -1863.8184
TCL: Writing to files with basename ./output/4/decarb.job0000.drift0003.iter0001.
TCL: Running for 5 steps
TCL: Writing to files with basename ./output/4/decarb.job0000.drift0004.iter0001.
TCL: Running for 5 steps
TCL: Running for 5 steps
ETITLE: TS BOND ANGLE DIHED IMPRP ELECT VDW BOUNDARY MISC KINETIC TOTAL TEMP POTENTIAL TOTAL3 TEMPAVG PRESSURE GPRESSURE VOLUME PRESSAVG GPRESSAVG
ENERGY: 260 15446.6348 10008.3349 1941.1565 114.9670 -193235.5810 15909.6955 0.0000 157.4282 43207.6569 -106449.7071 299.9687 -149657.3640 -106389.1570 299.9197 -1664.0381 -1766.5190 472972.7199 -1763.6421 -1826.8234
TCL: Running for 5 steps
ETITLE: TS BOND ANGLE DIHED IMPRP ELECT VDW BOUNDARY MISC KINETIC TOTAL TEMP POTENTIAL TOTAL3 TEMPAVG PRESSURE GPRESSURE VOLUME PRESSAVG GPRESSAVG
ENERGY: 260 15446.6348 10008.3349 1941.1565 114.9670 -193235.5810 15909.6955 0.0000 157.4287 43207.6569 -106449.7066 299.9687 -149657.3635 -106355.6528 299.9687 -1667.3206 -1765.3453 472972.7199 -1667.3206 -1765.3453
TCL: Running for 5 steps
TCL: Running for 5 steps
TCL: Running for 5 steps
ETITLE: TS BOND ANGLE DIHED IMPRP ELECT VDW BOUNDARY MISC KINETIC TOTAL TEMP POTENTIAL TOTAL3 TEMPAVG PRESSURE GPRESSURE VOLUME PRESSAVG GPRESSAVG
ENERGY: 280 15593.9179 9565.7843 1917.8870 128.1162 -193106.2946 16018.4793 0.0000 9.8651 43146.9505 -106725.2943 299.5473 -149872.2449 -106626.8322 300.7423 -1979.4434 -1831.5545 472972.7199 -1700.6026 -1756.8078
TCL: Running for 5 steps
ETITLE: TS BOND ANGLE DIHED IMPRP ELECT VDW BOUNDARY MISC KINETIC TOTAL TEMP POTENTIAL TOTAL3 TEMPAVG PRESSURE GPRESSURE VOLUME PRESSAVG GPRESSAVG
ENERGY: 280 15593.9179 9565.7843 1917.8870 128.1162 -193106.2946 16018.4793 0.0000 9.8845 43146.9505 -106725.2749 299.5473 -149872.2254 -106622.5549 299.5473 -1979.8825 -1830.4418 472972.7199 -1979.8825 -1830.4418
TCL: Running for 5 steps
TCL: Running for 5 steps
TCL: Running for 5 steps
ETITLE: TS BOND ANGLE DIHED IMPRP ELECT VDW BOUNDARY MISC KINETIC TOTAL TEMP POTENTIAL TOTAL3 TEMPAVG PRESSURE GPRESSURE VOLUME PRESSAVG GPRESSAVG
ENERGY: 300 15512.9726 9787.6175 1919.0837 119.2454 -193276.1999 16034.4776 0.0000 70.7214 43274.2571 -106557.8245 300.4311 -149832.0817 -106403.5415 299.7911 -1553.8348 -1846.6010 472972.7199 -1801.2277 -1857.0029
TCL: Running for 5 steps
ETITLE: TS BOND ANGLE DIHED IMPRP ELECT VDW BOUNDARY MISC KINETIC TOTAL TEMP POTENTIAL TOTAL3 TEMPAVG PRESSURE GPRESSURE VOLUME PRESSAVG GPRESSAVG
ENERGY: 300 15512.9726 9787.6175 1919.0837 119.2454 -193276.1999 16034.4776 0.0000 70.8143 43274.2571 -106557.7317 300.4311 -149831.9888 -106467.4019 300.4311 -1547.6780 -1841.9213 472972.7199 -1547.6780 -1841.9213
TCL: Running for 5 steps
TCL: Running for 5 steps
TCL: Running for 5 steps
ETITLE: TS BOND ANGLE DIHED IMPRP ELECT VDW BOUNDARY MISC KINETIC TOTAL TEMP POTENTIAL TOTAL3 TEMPAVG PRESSURE GPRESSURE VOLUME PRESSAVG GPRESSAVG
ENERGY: 320 15607.4528 9853.6083 1933.9878 116.7127 -193247.8104 16050.3346 0.0000 -56.1694 43119.2185 -106622.6651 299.3547 -149741.8836 -106603.6747 300.1933 -1804.3358 -1881.5299 472972.7199 -1968.5697 -1862.6777
TCL: Running for 5 steps
ETITLE: TS BOND ANGLE DIHED IMPRP ELECT VDW BOUNDARY MISC KINETIC TOTAL TEMP POTENTIAL TOTAL3 TEMPAVG PRESSURE GPRESSURE VOLUME PRESSAVG GPRESSAVG
ENERGY: 320 15607.4528 9853.6083 1933.9878 116.7127 -193247.8104 16050.3346 0.0000 -56.0423 43119.2185 -106622.5380 299.3547 -149741.7565 -106531.9314 299.3547 -1811.4986 -1882.6388 472972.7199 -1811.4986 -1882.6388
TCL: Running for 5 steps
TCL: Running for 5 steps
TCL: Running for 5 steps
ETITLE: TS BOND ANGLE DIHED IMPRP ELECT VDW BOUNDARY MISC KINETIC TOTAL TEMP POTENTIAL TOTAL3 TEMPAVG PRESSURE GPRESSURE VOLUME PRESSAVG GPRESSAVG
ENERGY: 340 15414.6103 9840.0035 1927.8212 110.9544 -192927.8233 16015.3417 0.0000 3.3899 43272.1213 -106343.5809 300.4163 -149615.7022 -106363.5109 301.0948 -1405.7800 -1862.7877 472972.7199 -2031.6744 -1895.6731
TCL: Running for 5 steps
ETITLE: TS BOND ANGLE DIHED IMPRP ELECT VDW BOUNDARY MISC KINETIC TOTAL TEMP POTENTIAL TOTAL3 TEMPAVG PRESSURE GPRESSURE VOLUME PRESSAVG GPRESSAVG
ENERGY: 340 15414.6103 9840.0035 1927.8212 110.9544 -192927.8233 16015.3417 0.0000 3.9335 43272.1213 -106343.0372 300.4163 -149615.1586 -106250.4132 300.4163 -1417.1794 -1865.7315 472972.7199 -1417.1794 -1865.7315
TCL: Running for 5 steps
TCL: Running for 5 steps
TCL: Running for 5 steps
ETITLE: TS BOND ANGLE DIHED IMPRP ELECT VDW BOUNDARY MISC KINETIC TOTAL TEMP POTENTIAL TOTAL3 TEMPAVG PRESSURE GPRESSURE VOLUME PRESSAVG GPRESSAVG
ENERGY: 360 15478.0303 9802.8405 1933.6739 107.0747 -193198.8216 16017.9851 0.0000 -39.6435 43305.6169 -106593.2437 300.6488 -149898.8606 -106502.3949 300.4549 -1866.8312 -1845.4531 472972.7199 -1840.7036 -1861.8980
TCL: Running for 5 steps
ETITLE: TS BOND ANGLE DIHED IMPRP ELECT VDW BOUNDARY MISC KINETIC TOTAL TEMP POTENTIAL TOTAL3 TEMPAVG PRESSURE GPRESSURE VOLUME PRESSAVG GPRESSAVG
ENERGY: 360 15478.0303 9802.8405 1933.6739 107.0747 -193198.8216 16017.9851 0.0000 -38.8045 43305.6169 -106592.4047 300.6488 -149898.0215 -106496.8662 300.6488 -1868.1018 -1850.1619 472972.7199 -1868.1018 -1850.1619
TCL: Running for 5 steps
TCL: Running for 5 steps
TCL: Running for 5 steps
ETITLE: TS BOND ANGLE DIHED IMPRP ELECT VDW BOUNDARY MISC KINETIC TOTAL TEMP POTENTIAL TOTAL3 TEMPAVG PRESSURE GPRESSURE VOLUME PRESSAVG GPRESSAVG
ENERGY: 380 15337.6718 10044.5836 1920.5476 104.0702 -193475.0564 16078.7010 0.0000 41.7934 43118.1556 -106829.5333 299.3473 -149947.6889 -106745.3302 300.0320 -1547.6724 -1799.4169 472972.7199 -1880.5598 -1834.6523
TCL: Running for 5 steps
ETITLE: TS BOND ANGLE DIHED IMPRP ELECT VDW BOUNDARY MISC KINETIC TOTAL TEMP POTENTIAL TOTAL3 TEMPAVG PRESSURE GPRESSURE VOLUME PRESSAVG GPRESSAVG
ENERGY: 380 15337.6718 10044.5836 1920.5476 104.0702 -193475.0564 16078.7010 0.0000 42.8316 43118.1556 -106828.4951 299.3473 -149946.6507 -106725.2086 299.3473 -1550.4787 -1802.5363 472972.7199 -1550.4787 -1802.5363
TCL: Running for 5 steps
TCL: Running for 5 steps
TCL: Running for 5 steps
ETITLE: TS BOND ANGLE DIHED IMPRP ELECT VDW BOUNDARY MISC KINETIC TOTAL TEMP POTENTIAL TOTAL3 TEMPAVG PRESSURE GPRESSURE VOLUME PRESSAVG GPRESSAVG
ENERGY: 400 15415.6152 9778.7935 1919.2566 102.7330 -193205.9176 16120.2403 0.0000 8.5791 43239.0405 -106621.6594 300.1866 -149860.6999 -106509.3243 300.8515 -1688.6250 -1735.1562 472972.7199 -1713.5269 -1743.5941
TCL: Running for 5 steps
