Info: SIMULATION PARAMETERS:
Info: TIMESTEP               0.5
Info: NUMBER OF STEPS        0
Info: STEPS PER CYCLE        1
Info: PERIODIC CELL BASIS 1  78.0108 0 0
Info: PERIODIC CELL BASIS 2  0 78.0108 0
Info: PERIODIC CELL BASIS 3  0 0 78.0108
Info: PERIODIC CELL CENTER   0 0 0
Info: FIRST LDB TIMESTEP     1
Info: LAST LDB TIMESTEP     -1
Info: HOM BACKGROUND SCALING 1
Info: PME BACKGROUND SCALING 1
Info: MIN ATOMS PER PATCH    40
Info: INITIAL TEMPERATURE    300
Info: CENTER OF MASS MOVING INITIALLY? NO
Info: DIELECTRIC             1
Info: EXCLUDE                SCALED ONE-FOUR
Info: 1-4 ELECTROSTATICS SCALED BY 1
Info: MODIFIED 1-4 VDW PARAMETERS WILL BE USED
Info: NO DCD TRAJECTORY OUTPUT
Info: NO EXTENDED SYSTEM TRAJECTORY OUTPUT
Info: NO VELOCITY DCD OUTPUT
Info: NO FORCE DCD OUTPUT
Info: OUTPUT FILENAME        ./output/10/decarb.job0000
Info: BINARY OUTPUT FILES WILL BE USED
Info: RESTART FILENAME       ./output/10/decarb.job0000.restart
Info: RESTART FREQUENCY      100
Info: BINARY RESTART FILES WILL BE USED
Info: SWITCHING ACTIVE
Info: SWITCHING ON           12
Info: SWITCHING OFF          14
Info: PAIRLIST DISTANCE      15
Info: PAIRLIST SHRINK RATE   0.01
Info: PAIRLIST GROW RATE     0.01
Info: PAIRLIST TRIGGER       0.3
Info: PAIRLISTS PER CYCLE    2
Info: PAIRLISTS ENABLED
Info: MARGIN                 0
Info: HYDROGEN GROUP CUTOFF  2.5
Info: PATCH DIMENSION        17.5
Info: ENERGY OUTPUT STEPS    100
Info: CROSSTERM ENERGY INCLUDED IN DIHEDRAL
Info: TIMING OUTPUT STEPS    100
Info: QM FORCES ACTIVE
Info: QM SOFTWARE: mopac
Info: QM ATOM CHARGES FROM QM SOFTWARE: MULLIKEN
Info: QM EXECUTABLE PATH: /home/melomcr/Projects_melomcr/Programs/MOPAC_GPU/MOPAC2016.exe
Info: QM COLUMN: beta
Info: QM BOND COLUMN: occ
Info: QM WILL DETECT BONDS BETWEEN QM AND MM ATOMS.
Info: QM-MM BOND SCHEME: Charge Shift.
Info: QM Will use PSF charges.
Info: QM BASE DIRECTORY: /dev/shm/NAMD_SM_qmmm
Info: QM CONFIG LINE: PM7 XYZ T=2M 1SCF AUX LET GRAD QMMM THREADS=2
Info: QM CONFIG LINE: decarboxylase
Info: QM POINT CHARGES WILL BE SELECTED EVERY 1 STEPS.
Info: QM Point Charge Switching: ON.
Info: QM Point Charge SCHEME: none.
Info: QM executions per node: 1
Info: COLLECTIVE VARIABLES CALCULATION REQUESTED
Info: COLLECTIVE VARIABLES CONFIGURATION   ./setup/colvars_10.conf
Info: LANGEVIN DYNAMICS ACTIVE
Info: LANGEVIN TEMPERATURE   300
Info: LANGEVIN USING BBK INTEGRATOR
Info: LANGEVIN DAMPING COEFFICIENT IS 200 INVERSE PS
Info: LANGEVIN DYNAMICS APPLIED TO HYDROGENS
Info: PARTICLE MESH EWALD (PME) ACTIVE
Info: PME TOLERANCE               1e-05
Info: PME EWALD COEFFICIENT       0.192342
Info: PME INTERPOLATION ORDER     4
Info: PME GRID DIMENSIONS         80 80 80
Info: PME MAXIMUM GRID SPACING    1
Info: FULL ELECTROSTATIC EVALUATION FREQUENCY      1
Info: USING VERLET I (r-RESPA) MTS SCHEME.
Info: C1 SPLITTING OF LONG RANGE ELECTROSTATICS
Info: PLACING ATOMS IN PATCHES BY HYDROGEN GROUPS
Info: RANDOM NUMBER SEED     89626
Info: USE HYDROGEN BONDS?    NO
Info: COORDINATE PDB         decarboxylase.0.pdb
Info: STRUCTURE FILE         decarboxylase.0.psf
Info: PARAMETER file: CHARMM format!
Info: PARAMETERS             ./toppar/par_all36_prot.prm
Info: PARAMETERS             ./toppar/par_all36_cgenff.prm
Info: PARAMETERS             ./toppar/par_all36_na.prm
Info: PARAMETERS             ./toppar/par_all36_carb.prm
Info: PARAMETERS             ./toppar/par_all36_lipid.prm
Info: PARAMETERS             ./toppar/toppar_water_ions_namd.str
Info: PARAMETERS             ./toppar/ligand.str
Info: USING ARITHMETIC MEAN TO COMBINE L-J SIGMA PARAMETERS
Info: BINARY COORDINATES     ./setup/image_10.coor
Info: SKIPPING rtf SECTION IN STREAM FILE
Info: SKIPPING rtf SECTION IN STREAM FILE
Info: SUMMARY OF PARAMETERS:
Info: 912 BONDS
Info: 2656 ANGLES
Info: 6453 DIHEDRAL
Info: 190 IMPROPER
Info: 6 CROSSTERM
Info: 350 VDW
Info: 6 VDW_PAIRS
Info: 0 NBTHOLE_PAIRS
Info: Using the following PDB file for QM parameters: decarboxylase.0.pdb
Info: Number of QM atoms (excluding Dummy atoms): 35
Info: We found 2 QM-MM bonds.
Info: 1) Group ID: 1 ; Group size: 35 atoms ; Total PSF charge: -1
Info: MM-QM pair: 1005:1007 -> Value (distance or ratio): 1.09 (QM Group 0 ID 1)
Info: MM-QM pair: 3303:3304 -> Value (distance or ratio): 0.99 (QM Group 0 ID 1)
Info: STRUCTURE SUMMARY:
Info: 48341 ATOMS
Info: 33354 BONDS
Info: 21065 ANGLES
Info: 8802 DIHEDRALS
Info: 566 IMPROPERS
Info: 213 CROSSTERMS
Info: 0 EXCLUSIONS
Info: 145023 DEGREES OF FREEDOM
Info: 16669 HYDROGEN GROUPS
Info: 4 ATOMS IN LARGEST HYDROGEN GROUP
Info: 16669 MIGRATION GROUPS
Info: 4 ATOMS IN LARGEST MIGRATION GROUP
Info: TOTAL MASS = 294152 amu
Info: TOTAL CHARGE = 0.999003 e
Info: MASS DENSITY = 1.02889 g/cm^3
Info: ATOM DENSITY = 0.101824 atoms/A^3
Info: The QM region will remove 33 bonds, 52 angles, 61 dihedrals, 4 impropers and 0 crossterms.
Info: ADDED 63124 IMPLICIT EXCLUSIONS
Info: NONBONDED TABLE R-SQUARED SPACING: 0.0625
Info: NONBONDED TABLE SIZE: 769 POINTS
Info: REMOVING COM VELOCITY -0.0204386 0.00866159 -0.00234765
TCL: Running for 5 steps
Info: List of ranks running QM simulations: 0.
ETITLE: TS BOND ANGLE DIHED IMPRP ELECT VDW BOUNDARY MISC KINETIC TOTAL TEMP POTENTIAL TOTAL3 TEMPAVG PRESSURE GPRESSURE VOLUME PRESSAVG GPRESSAVG
ENERGY: 0 15710.5300 10098.6907 1951.0812 120.0034 -193820.0062 16683.7939 0.0000 -152.9371 43120.7356 -106288.1084 299.2538 -149408.8440 -106192.7948 299.2538 -1576.9278 -1414.0680 474748.4077 -1576.9278 -1414.0680
TCL: Writing to files with basename ./output/10/decarb.job0000.drift0000.iter0000.
TCL: Running for 5 steps
TCL: Writing to files with basename ./output/10/decarb.job0000.drift0001.iter0000.
TCL: Running for 5 steps
TCL: Writing to files with basename ./output/10/decarb.job0000.drift0002.iter0000.
TCL: Running for 5 steps
TCL: Writing to files with basename ./output/10/decarb.job0000.drift0003.iter0000.
TCL: Running for 5 steps
TCL: Writing to files with basename ./output/10/decarb.job0000.drift0004.iter0000.
TCL: Running for 5 steps
TCL: Running for 5 steps
TCL: Running for 5 steps
TCL: Running for 5 steps
TCL: Running for 5 steps
TCL: Running for 5 steps
TCL: Running for 5 steps
TCL: Running for 5 steps
TCL: Running for 5 steps
TCL: Running for 5 steps
TCL: Running for 5 steps
TCL: Running for 5 steps
TCL: Running for 5 steps
TCL: Running for 5 steps
TCL: Running for 5 steps
ETITLE: TS BOND ANGLE DIHED IMPRP ELECT VDW BOUNDARY MISC KINETIC TOTAL TEMP POTENTIAL TOTAL3 TEMPAVG PRESSURE GPRESSURE VOLUME PRESSAVG GPRESSAVG
ENERGY: 100 15267.0762 10032.5368 1943.1438 103.2165 -193748.3126 16791.1277 0.0000 -265.6802 43201.1699 -106675.7220 299.8120 -149876.8919 -106559.9475 299.3636 -1064.1677 -1462.7886 474748.4077 -1409.0351 -1429.7439
TCL: Running for 5 steps
ETITLE: TS BOND ANGLE DIHED IMPRP ELECT VDW BOUNDARY MISC KINETIC TOTAL TEMP POTENTIAL TOTAL3 TEMPAVG PRESSURE GPRESSURE VOLUME PRESSAVG GPRESSAVG
ENERGY: 100 15267.0762 10032.5368 1943.1438 103.2165 -193748.3126 16791.1277 0.0000 -262.4448 43201.1699 -106672.4865 299.8120 -149873.6564 -106573.0023 299.8120 -1062.4671 -1460.8451 474748.4077 -1062.4671 -1460.8451
TCL: Running for 5 steps
TCL: Running for 5 steps
TCL: Running for 5 steps
TCL: Running for 5 steps
TCL: Running for 5 steps
TCL: Running for 5 steps
TCL: Running for 5 steps
TCL: Running for 5 steps
TCL: Running for 5 steps
TCL: Running for 5 steps
TCL: Running for 5 steps
TCL: Running for 5 steps
TCL: Running for 5 steps
TCL: Running for 5 steps
TCL: Running for 5 steps
TCL: Running for 5 steps
TCL: Running for 5 steps
TCL: Running for 5 steps
TCL: Running for 5 steps
ETITLE: TS BOND ANGLE DIHED IMPRP ELECT VDW BOUNDARY MISC KINETIC TOTAL TEMP POTENTIAL TOTAL3 TEMPAVG PRESSURE GPRESSURE VOLUME PRESSAVG GPRESSAVG
ENERGY: 200 15660.9109 9963.7675 1962.7627 116.5457 -194190.9795 16809.0337 0.0000 -211.8254 43365.8027 -106523.9818 300.9545 -149889.7845 -106454.9323 300.0744 -1479.9074 -1461.2878 474748.4077 -1435.5236 -1464.1862
TCL: Running for 5 steps
ETITLE: TS BOND ANGLE DIHED IMPRP ELECT VDW BOUNDARY MISC KINETIC TOTAL TEMP POTENTIAL TOTAL3 TEMPAVG PRESSURE GPRESSURE VOLUME PRESSAVG GPRESSAVG
ENERGY: 200 15660.9109 9963.7675 1962.7627 116.5457 -194190.9795 16809.0337 0.0000 -210.6286 43365.8027 -106522.7850 300.9545 -149888.5877 -106431.6771 300.9545 -1481.2844 -1462.9550 474748.4077 -1481.2844 -1462.9550
TCL: Running for 5 steps
TCL: Running for 5 steps
TCL: Running for 5 steps
TCL: Running for 5 steps
TCL: Writing to files with basename ./output/10/decarb.job0000.image0010.iter0000.
TCL: Running for 5 steps
TCL: Writing to files with basename ./output/10/decarb.job0000.drift0000.iter0001.
TCL: Running for 5 steps
TCL: Writing to files with basename ./output/10/decarb.job0000.drift0001.iter0001.
TCL: Running for 5 steps
TCL: Writing to files with basename ./output/10/decarb.job0000.drift0002.iter0001.
TCL: Running for 5 steps
TCL: Writing to files with basename ./output/10/decarb.job0000.drift0003.iter0001.
TCL: Running for 5 steps
TCL: Writing to files with basename ./output/10/decarb.job0000.drift0004.iter0001.
TCL: Running for 5 steps
TCL: Running for 5 steps
TCL: Running for 5 steps
TCL: Running for 5 steps
TCL: Running for 5 steps
TCL: Running for 5 steps
TCL: Running for 5 steps
TCL: Running for 5 steps
TCL: Running for 5 steps
TCL: Running for 5 steps
ETITLE: TS BOND ANGLE DIHED IMPRP ELECT VDW BOUNDARY MISC KINETIC TOTAL TEMP POTENTIAL TOTAL3 TEMPAVG PRESSURE GPRESSURE VOLUME PRESSAVG GPRESSAVG
ENERGY: 300 15792.6663 10174.3369 1957.5435 116.6006 -194414.7841 17046.7026 0.0000 -194.5879 43062.2020 -106459.3199 298.8476 -149521.5220 -106372.9451 299.9466 -1746.2024 -1382.5686 474748.4077 -1293.8673 -1318.9767
TCL: Running for 5 steps
ETITLE: TS BOND ANGLE DIHED IMPRP ELECT VDW BOUNDARY MISC KINETIC TOTAL TEMP POTENTIAL TOTAL3 TEMPAVG PRESSURE GPRESSURE VOLUME PRESSAVG GPRESSAVG
ENERGY: 300 15792.6663 10174.3369 1957.5435 116.6006 -194414.7841 17046.7026 0.0000 -193.9031 43062.2020 -106458.6351 298.8476 -149520.8371 -106364.5920 298.8476 -1747.0656 -1381.7663 474748.4077 -1747.0656 -1381.7663
TCL: Running for 5 steps
TCL: Running for 5 steps
TCL: Running for 5 steps
TCL: Running for 5 steps
TCL: Running for 5 steps
TCL: Running for 5 steps
TCL: Running for 5 steps
TCL: Running for 5 steps
TCL: Running for 5 steps
TCL: Running for 5 steps
TCL: Running for 5 steps
TCL: Running for 5 steps
TCL: Running for 5 steps
TCL: Running for 5 steps
TCL: Running for 5 steps
TCL: Running for 5 steps
TCL: Running for 5 steps
TCL: Running for 5 steps
TCL: Running for 5 steps
ETITLE: TS BOND ANGLE DIHED IMPRP ELECT VDW BOUNDARY MISC KINETIC TOTAL TEMP POTENTIAL TOTAL3 TEMPAVG PRESSURE GPRESSURE VOLUME PRESSAVG GPRESSAVG
ENERGY: 400 15442.3249 10055.9799 1925.0612 123.5284 -194218.8196 17029.9102 0.0000 -205.2365 43284.2439 -106563.0076 300.3885 -149847.2515 -106465.2745 299.7993 -1237.9465 -1199.6903 474748.4077 -1248.3517 -1285.6015
TCL: Running for 5 steps
ETITLE: TS BOND ANGLE DIHED IMPRP ELECT VDW BOUNDARY MISC KINETIC TOTAL TEMP POTENTIAL TOTAL3 TEMPAVG PRESSURE GPRESSURE VOLUME PRESSAVG GPRESSAVG
ENERGY: 400 15442.3249 10055.9799 1925.0612 123.5284 -194218.8196 17029.9102 0.0000 -203.2761 43284.2439 -106561.0472 300.3885 -149845.2911 -106466.3888 300.3885 -1237.6928 -1199.2864 474748.4077 -1237.6928 -1199.2864
TCL: Running for 5 steps
TCL: Running for 5 steps
TCL: Running for 5 steps
TCL: Running for 5 steps
TCL: Running for 5 steps
TCL: Running for 5 steps
TCL: Running for 5 steps
TCL: Running for 5 steps
TCL: Running for 5 steps
TCL: Writing to files with basename ./output/10/decarb.job0000.image0010.iter0001.
TCL: Running for 5 steps
TCL: Writing to files with basename ./output/10/decarb.job0000.drift0000.iter0002.
TCL: Running for 5 steps
TCL: Writing to files with basename ./output/10/decarb.job0000.drift0001.iter0002.
TCL: Running for 5 steps
TCL: Writing to files with basename ./output/10/decarb.job0000.drift0002.iter0002.
TCL: Running for 5 steps
TCL: Writing to files with basename ./output/10/decarb.job0000.drift0003.iter0002.
TCL: Running for 5 steps
TCL: Writing to files with basename ./output/10/decarb.job0000.drift0004.iter0002.
TCL: Running for 5 steps
TCL: Running for 5 steps
TCL: Running for 5 steps
TCL: Running for 5 steps
TCL: Running for 5 steps
ETITLE: TS BOND ANGLE DIHED IMPRP ELECT VDW BOUNDARY MISC KINETIC TOTAL TEMP POTENTIAL TOTAL3 TEMPAVG PRESSURE GPRESSURE VOLUME PRESSAVG GPRESSAVG
ENERGY: 500 15500.4669 10060.6221 1931.3787 121.2759 -194455.9369 17052.8561 0.0000 -262.2640 43499.6042 -106551.9969 301.8831 -150051.6012 -106446.1798 300.1961 -1507.3603 -1374.4104 474748.4077 -1270.2944 -1272.4395
TCL: Running for 5 steps
ETITLE: TS BOND ANGLE DIHED IMPRP ELECT VDW BOUNDARY MISC KINETIC TOTAL TEMP POTENTIAL TOTAL3 TEMPAVG PRESSURE GPRESSURE VOLUME PRESSAVG GPRESSAVG
ENERGY: 500 15500.4669 10060.6221 1931.3787 121.2759 -194455.9369 17052.8561 0.0000 -262.1974 43499.6042 -106551.9303 301.8831 -150051.5346 -106460.6475 301.8831 -1505.9606 -1374.8747 474748.4077 -1505.9606 -1374.8747
TCL: Running for 5 steps
TCL: Running for 5 steps
TCL: Running for 5 steps
TCL: Running for 5 steps
TCL: Running for 5 steps
TCL: Running for 5 steps
TCL: Running for 5 steps
TCL: Running for 5 steps
TCL: Running for 5 steps
TCL: Running for 5 steps
TCL: Running for 5 steps
TCL: Running for 5 steps
TCL: Running for 5 steps
TCL: Running for 5 steps
TCL: Running for 5 steps
TCL: Running for 5 steps
TCL: Running for 5 steps
TCL: Running for 5 steps
TCL: Running for 5 steps
ETITLE: TS BOND ANGLE DIHED IMPRP ELECT VDW BOUNDARY MISC KINETIC TOTAL TEMP POTENTIAL TOTAL3 TEMPAVG PRESSURE GPRESSURE VOLUME PRESSAVG GPRESSAVG
ENERGY: 600 15450.9709 10226.0050 1913.7506 123.6643 -194587.6501 16981.6342 0.0000 -125.6964 42912.1944 -107105.1272 297.8065 -150017.3216 -106960.6546 300.0087 -1374.5938 -1356.2727 474748.4077 -1312.2047 -1325.3903
TCL: Running for 5 steps
ETITLE: TS BOND ANGLE DIHED IMPRP ELECT VDW BOUNDARY MISC KINETIC TOTAL TEMP POTENTIAL TOTAL3 TEMPAVG PRESSURE GPRESSURE VOLUME PRESSAVG GPRESSAVG
ENERGY: 600 15450.9709 10226.0050 1913.7506 123.6643 -194587.6501 16981.6342 0.0000 -123.9213 42912.1944 -107103.3521 297.8065 -150015.5465 -106987.6702 297.8065 -1372.1735 -1353.3985 474748.4077 -1372.1735 -1353.3985
TCL: Running for 5 steps
TCL: Running for 5 steps
TCL: Running for 5 steps
TCL: Running for 5 steps
TCL: Running for 5 steps
TCL: Running for 5 steps
TCL: Running for 5 steps
TCL: Running for 5 steps
TCL: Running for 5 steps
TCL: Running for 5 steps
TCL: Running for 5 steps
TCL: Running for 5 steps
TCL: Running for 5 steps
TCL: Running for 5 steps
TCL: Writing to files with basename ./output/10/decarb.job0000.image0010.iter0002.
TCL: Running for 5 steps
TCL: Writing to files with basename ./output/10/decarb.job0000.drift0000.iter0003.
TCL: Running for 5 steps
TCL: Writing to files with basename ./output/10/decarb.job0000.drift0001.iter0003.
TCL: Running for 5 steps
TCL: Writing to files with basename ./output/10/decarb.job0000.drift0002.iter0003.
TCL: Running for 5 steps
TCL: Writing to files with basename ./output/10/decarb.job0000.drift0003.iter0003.
TCL: Running for 5 steps
ETITLE: TS BOND ANGLE DIHED IMPRP ELECT VDW BOUNDARY MISC KINETIC TOTAL TEMP POTENTIAL TOTAL3 TEMPAVG PRESSURE GPRESSURE VOLUME PRESSAVG GPRESSAVG
ENERGY: 700 15525.6303 10071.7176 1945.4029 118.6034 -194705.5929 17028.3305 0.0000 -112.3495 43042.1767 -107086.0810 298.7086 -150128.2577 -107057.8176 299.4421 -1284.3594 -1322.8438 474748.4077 -1276.9308 -1293.5251
TCL: Writing to files with basename ./output/10/decarb.job0000.drift0004.iter0003.
TCL: Running for 5 steps
ETITLE: TS BOND ANGLE DIHED IMPRP ELECT VDW BOUNDARY MISC KINETIC TOTAL TEMP POTENTIAL TOTAL3 TEMPAVG PRESSURE GPRESSURE VOLUME PRESSAVG GPRESSAVG
ENERGY: 700 15525.6303 10071.7176 1945.4029 118.6034 -194705.5929 17028.3305 0.0000 -112.3451 43042.1767 -107086.0766 298.7086 -150128.2534 -106987.1648 298.7086 -1291.2600 -1325.9113 474748.4077 -1291.2600 -1325.9113
TCL: Running for 5 steps
TCL: Running for 5 steps
TCL: Running for 5 steps
TCL: Running for 5 steps
TCL: Running for 5 steps
TCL: Running for 5 steps
TCL: Running for 5 steps
TCL: Running for 5 steps
TCL: Running for 5 steps
TCL: Running for 5 steps
TCL: Running for 5 steps
TCL: Running for 5 steps
TCL: Running for 5 steps
TCL: Running for 5 steps
TCL: Running for 5 steps
TCL: Running for 5 steps
TCL: Running for 5 steps
TCL: Running for 5 steps
TCL: Running for 5 steps
ETITLE: TS BOND ANGLE DIHED IMPRP ELECT VDW BOUNDARY MISC KINETIC TOTAL TEMP POTENTIAL TOTAL3 TEMPAVG PRESSURE GPRESSURE VOLUME PRESSAVG GPRESSAVG
ENERGY: 800 15412.9565 10077.2000 1937.1519 125.6358 -194715.7063 17351.8499 0.0000 -188.6347 43112.9889 -106886.5580 299.2000 -149999.5468 -106836.4854 299.5216 -1011.7044 -1151.4072 474748.4077 -1230.1760 -1269.4017
TCL: Running for 5 steps
ETITLE: TS BOND ANGLE DIHED IMPRP ELECT VDW BOUNDARY MISC KINETIC TOTAL TEMP POTENTIAL TOTAL3 TEMPAVG PRESSURE GPRESSURE VOLUME PRESSAVG GPRESSAVG
ENERGY: 800 15412.9565 10077.2000 1937.1519 125.6358 -194715.7063 17351.8499 0.0000 -186.4371 43112.9889 -106884.3604 299.2000 -149997.3493 -106792.9966 299.2000 -1016.9471 -1154.0673 474748.4077 -1016.9471 -1154.0673
TCL: Running for 5 steps
TCL: Running for 5 steps
TCL: Running for 5 steps
TCL: Running for 5 steps
TCL: Running for 5 steps
TCL: Running for 5 steps
TCL: Running for 5 steps
TCL: Running for 5 steps
TCL: Running for 5 steps
TCL: Running for 5 steps
TCL: Running for 5 steps
TCL: Running for 5 steps
TCL: Running for 5 steps
TCL: Running for 5 steps
TCL: Running for 5 steps
TCL: Running for 5 steps
TCL: Running for 5 steps
TCL: Running for 5 steps
TCL: Running for 5 steps
ETITLE: TS BOND ANGLE DIHED IMPRP ELECT VDW BOUNDARY MISC KINETIC TOTAL TEMP POTENTIAL TOTAL3 TEMPAVG PRESSURE GPRESSURE VOLUME PRESSAVG GPRESSAVG
ENERGY: 900 15657.8152 9990.5576 1947.3336 126.8411 -194837.0578 17484.3505 0.0000 -99.1396 43376.8591 -106352.4401 301.0313 -149729.2992 -106213.7073 299.8744 -903.7621 -1005.1519 474748.4077 -1043.6899 -1075.8782
TCL: Writing to files with basename ./output/10/decarb.job0000.image0010.iter0003.
TCL: Running for 5 steps
ETITLE: TS BOND ANGLE DIHED IMPRP ELECT VDW BOUNDARY MISC KINETIC TOTAL TEMP POTENTIAL TOTAL3 TEMPAVG PRESSURE GPRESSURE VOLUME PRESSAVG GPRESSAVG
ENERGY: 900 15657.8152 9990.5576 1947.3336 126.8411 -194837.0578 17484.3505 0.0000 -100.3912 43376.8591 -106353.6918 301.0313 -149730.5509 -106270.1343 301.0313 -895.2542 -1004.9053 474748.4077 -895.2542 -1004.9053
TCL: Writing to files with basename ./output/10/decarb.job0000.drift0000.iter0004.
TCL: Running for 5 steps
TCL: Writing to files with basename ./output/10/decarb.job0000.drift0001.iter0004.
TCL: Running for 5 steps
TCL: Writing to files with basename ./output/10/decarb.job0000.drift0002.iter0004.
TCL: Running for 5 steps
TCL: Writing to files with basename ./output/10/decarb.job0000.drift0003.iter0004.
TCL: Running for 5 steps
TCL: Writing to files with basename ./output/10/decarb.job0000.drift0004.iter0004.
TCL: Running for 5 steps
TCL: Running for 5 steps
TCL: Running for 5 steps
TCL: Running for 5 steps
TCL: Running for 5 steps
TCL: Running for 5 steps
TCL: Running for 5 steps
TCL: Running for 5 steps
TCL: Running for 5 steps
TCL: Running for 5 steps
TCL: Running for 5 steps
TCL: Running for 5 steps
TCL: Running for 5 steps
TCL: Running for 5 steps
TCL: Running for 5 steps
ETITLE: TS BOND ANGLE DIHED IMPRP ELECT VDW BOUNDARY MISC KINETIC TOTAL TEMP POTENTIAL TOTAL3 TEMPAVG PRESSURE GPRESSURE VOLUME PRESSAVG GPRESSAVG
ENERGY: 1000 15597.3713 10290.1490 1928.9132 120.3856 -195183.7181 17553.1460 0.0000 -133.6356 43029.7709 -106797.6177 298.6225 -149827.3885 -106689.3097 300.4744 -1034.7190 -1011.5713 474748.4077 -1062.6228 -1048.8812
TCL: Running for 5 steps
ETITLE: TS BOND ANGLE DIHED IMPRP ELECT VDW BOUNDARY MISC KINETIC TOTAL TEMP POTENTIAL TOTAL3 TEMPAVG PRESSURE GPRESSURE VOLUME PRESSAVG GPRESSAVG
ENERGY: 1000 15597.3713 10290.1490 1928.9132 120.3856 -195183.7181 17553.1460 0.0000 -132.3664 43029.7709 -106796.3485 298.6225 -149826.1194 -106703.4692 298.6225 -1033.6939 -1012.2304 474748.4077 -1033.6939 -1012.2304
TCL: Running for 5 steps
TCL: Running for 5 steps
TCL: Running for 5 steps
TCL: Running for 5 steps
TCL: Running for 5 steps
TCL: Running for 5 steps
TCL: Running for 5 steps
TCL: Running for 5 steps
TCL: Running for 5 steps
TCL: Running for 5 steps
TCL: Running for 5 steps
TCL: Running for 5 steps
TCL: Running for 5 steps
TCL: Running for 5 steps
TCL: Running for 5 steps
TCL: Running for 5 steps
TCL: Running for 5 steps
TCL: Running for 5 steps
TCL: Running for 5 steps
ETITLE: TS BOND ANGLE DIHED IMPRP ELECT VDW BOUNDARY MISC KINETIC TOTAL TEMP POTENTIAL TOTAL3 TEMPAVG PRESSURE GPRESSURE VOLUME PRESSAVG GPRESSAVG
ENERGY: 1100 15639.4681 10124.6491 1932.5544 105.9060 -195040.2974 17399.2347 0.0000 -222.1489 42956.7154 -107103.9187 298.1155 -150060.6340 -107026.5360 300.0927 -1325.1433 -1157.0231 474748.4077 -1134.3472 -1109.3823
TCL: Running for 5 steps
ETITLE: TS BOND ANGLE DIHED IMPRP ELECT VDW BOUNDARY MISC KINETIC TOTAL TEMP POTENTIAL TOTAL3 TEMPAVG PRESSURE GPRESSURE VOLUME PRESSAVG GPRESSAVG
ENERGY: 1100 15639.4681 10124.6491 1932.5544 105.9060 -195040.2974 17399.2347 0.0000 -221.8273 42956.7154 -107103.5971 298.1155 -150060.3125 -107002.6965 298.1155 -1328.7791 -1156.6956 474748.4077 -1328.7791 -1156.6956
TCL: Running for 5 steps
TCL: Running for 5 steps
TCL: Running for 5 steps
TCL: Running for 5 steps
TCL: Writing to files with basename ./output/10/decarb.job0000.image0010.iter0004.
TCL: Running for 5 steps
TCL: Writing to files with basename ./output/10/decarb.job0000.drift0000.iter0005.
TCL: Running for 5 steps
TCL: Writing to files with basename ./output/10/decarb.job0000.drift0001.iter0005.
TCL: Running for 5 steps
TCL: Writing to files with basename ./output/10/decarb.job0000.drift0002.iter0005.
TCL: Running for 5 steps
TCL: Writing to files with basename ./output/10/decarb.job0000.drift0003.iter0005.
TCL: Running for 5 steps
TCL: Writing to files with basename ./output/10/decarb.job0000.drift0004.iter0005.
TCL: Running for 5 steps
TCL: Running for 5 steps
TCL: Running for 5 steps
TCL: Running for 5 steps
TCL: Running for 5 steps
TCL: Running for 5 steps
TCL: Running for 5 steps
TCL: Running for 5 steps
TCL: Running for 5 steps
TCL: Running for 5 steps
ETITLE: TS BOND ANGLE DIHED IMPRP ELECT VDW BOUNDARY MISC KINETIC TOTAL TEMP POTENTIAL TOTAL3 TEMPAVG PRESSURE GPRESSURE VOLUME PRESSAVG GPRESSAVG
ENERGY: 1200 15411.5166 10108.9973 1923.5181 105.1673 -194943.7110 17481.7692 0.0000 -115.1409 43443.8031 -106584.0802 301.4958 -150027.8833 -106396.4618 299.8938 -862.4515 -1015.3831 474748.4077 -978.6830 -1034.0591
TCL: Running for 5 steps
ETITLE: TS BOND ANGLE DIHED IMPRP ELECT VDW BOUNDARY MISC KINETIC TOTAL TEMP POTENTIAL TOTAL3 TEMPAVG PRESSURE GPRESSURE VOLUME PRESSAVG GPRESSAVG
ENERGY: 1200 15411.5166 10108.9973 1923.5181 105.1673 -194943.7110 17481.7692 0.0000 -114.7785 43443.8031 -106583.7178 301.4958 -150027.5209 -106499.4594 301.4958 -852.5359 -1013.7416 474748.4077 -852.5359 -1013.7416
TCL: Running for 5 steps
TCL: Running for 5 steps
TCL: Running for 5 steps
TCL: Running for 5 steps
TCL: Running for 5 steps
TCL: Running for 5 steps
TCL: Running for 5 steps
TCL: Running for 5 steps
TCL: Running for 5 steps
TCL: Running for 5 steps
TCL: Running for 5 steps
TCL: Running for 5 steps
TCL: Running for 5 steps
TCL: Running for 5 steps
TCL: Running for 5 steps
TCL: Running for 5 steps
TCL: Running for 5 steps
TCL: Running for 5 steps
TCL: Running for 5 steps
ETITLE: TS BOND ANGLE DIHED IMPRP ELECT VDW BOUNDARY MISC KINETIC TOTAL TEMP POTENTIAL TOTAL3 TEMPAVG PRESSURE GPRESSURE VOLUME PRESSAVG GPRESSAVG
ENERGY: 1300 15378.4962 10058.3740 1925.1562 107.3546 -195016.9735 17411.0034 0.0000 -45.0560 43014.5722 -107167.0729 298.5170 -150181.6450 -107025.2028 299.4298 -1015.6071 -1116.6021 474748.4077 -1038.0663 -1022.9379
TCL: Running for 5 steps
ETITLE: TS BOND ANGLE DIHED IMPRP ELECT VDW BOUNDARY MISC KINETIC TOTAL TEMP POTENTIAL TOTAL3 TEMPAVG PRESSURE GPRESSURE VOLUME PRESSAVG GPRESSAVG
ENERGY: 1300 15378.4962 10058.3740 1925.1562 107.3546 -195016.9735 17411.0034 0.0000 -44.2098 43014.5722 -107166.2267 298.5170 -150180.7989 -107062.7888 298.5170 -1012.8317 -1112.2348 474748.4077 -1012.8317 -1112.2348
TCL: Running for 5 steps
TCL: Running for 5 steps
TCL: Running for 5 steps
TCL: Running for 5 steps
TCL: Running for 5 steps
TCL: Running for 5 steps
TCL: Running for 5 steps
TCL: Running for 5 steps
TCL: Running for 5 steps
TCL: Writing to files with basename ./output/10/decarb.job0000.image0010.iter0005.
TCL: Running for 5 steps
TCL: Writing to files with basename ./output/10/decarb.job0000.drift0000.iter0006.
TCL: Running for 5 steps
TCL: Writing to files with basename ./output/10/decarb.job0000.drift0001.iter0006.
TCL: Running for 5 steps
TCL: Writing to files with basename ./output/10/decarb.job0000.drift0002.iter0006.
TCL: Running for 5 steps
TCL: Writing to files with basename ./output/10/decarb.job0000.drift0003.iter0006.
TCL: Running for 5 steps
TCL: Writing to files with basename ./output/10/decarb.job0000.drift0004.iter0006.
TCL: Running for 5 steps
TCL: Running for 5 steps
TCL: Running for 5 steps
TCL: Running for 5 steps
TCL: Running for 5 steps
ETITLE: TS BOND ANGLE DIHED IMPRP ELECT VDW BOUNDARY MISC KINETIC TOTAL TEMP POTENTIAL TOTAL3 TEMPAVG PRESSURE GPRESSURE VOLUME PRESSAVG GPRESSAVG
ENERGY: 1400 15557.9414 9977.7469 1958.2789 113.5345 -195083.2349 17546.1172 0.0000 -74.3794 43168.4758 -106835.5195 299.5851 -150003.9954 -106664.5347 299.6142 -1148.7979 -1040.1828 474748.4077 -1109.3213 -1090.0975
TCL: Running for 5 steps
ETITLE: TS BOND ANGLE DIHED IMPRP ELECT VDW BOUNDARY MISC KINETIC TOTAL TEMP POTENTIAL TOTAL3 TEMPAVG PRESSURE GPRESSURE VOLUME PRESSAVG GPRESSAVG
ENERGY: 1400 15557.9414 9977.7469 1958.2789 113.5345 -195083.2349 17546.1172 0.0000 -74.3389 43168.4758 -106835.4790 299.5851 -150003.9549 -106742.3666 299.5851 -1141.2113 -1037.8272 474748.4077 -1141.2113 -1037.8272
TCL: Running for 5 steps
TCL: Running for 5 steps
TCL: Running for 5 steps
TCL: Running for 5 steps
TCL: Running for 5 steps
TCL: Running for 5 steps
TCL: Running for 5 steps
TCL: Running for 5 steps
TCL: Running for 5 steps
TCL: Running for 5 steps
TCL: Running for 5 steps
TCL: Running for 5 steps
TCL: Running for 5 steps
TCL: Running for 5 steps
TCL: Running for 5 steps
TCL: Running for 5 steps
TCL: Running for 5 steps
TCL: Running for 5 steps
TCL: Running for 5 steps
ETITLE: TS BOND ANGLE DIHED IMPRP ELECT VDW BOUNDARY MISC KINETIC TOTAL TEMP POTENTIAL TOTAL3 TEMPAVG PRESSURE GPRESSURE VOLUME PRESSAVG GPRESSAVG
ENERGY: 1500 15445.0811 10243.8969 1943.3870 116.6494 -195325.6479 17572.1519 0.0000 -42.0328 43258.9570 -106787.5573 300.2130 -150046.5143 -106730.7117 299.9702 -867.0998 -1004.3936 474748.4077 -1024.3737 -1017.8010
TCL: Running for 5 steps
ETITLE: TS BOND ANGLE DIHED IMPRP ELECT VDW BOUNDARY MISC KINETIC TOTAL TEMP POTENTIAL TOTAL3 TEMPAVG PRESSURE GPRESSURE VOLUME PRESSAVG GPRESSAVG
ENERGY: 1500 15445.0811 10243.8969 1943.3870 116.6494 -195325.6479 17572.1519 0.0000 -40.2687 43258.9570 -106785.7932 300.2130 -150044.7502 -106690.9449 300.2130 -872.6090 -1006.9560 474748.4077 -872.6090 -1006.9560
TCL: Running for 5 steps
TCL: Running for 5 steps
TCL: Running for 5 steps
TCL: Running for 5 steps
TCL: Running for 5 steps
TCL: Running for 5 steps
TCL: Running for 5 steps
TCL: Running for 5 steps
TCL: Running for 5 steps
TCL: Running for 5 steps
TCL: Running for 5 steps
TCL: Running for 5 steps
TCL: Running for 5 steps
TCL: Running for 5 steps
TCL: Writing to files with basename ./output/10/decarb.job0000.image0010.iter0006.
TCL: Running for 5 steps
TCL: Writing to files with basename ./output/10/decarb.job0000.drift0000.iter0007.
TCL: Running for 5 steps
TCL: Writing to files with basename ./output/10/decarb.job0000.drift0001.iter0007.
TCL: Running for 5 steps
TCL: Writing to files with basename ./output/10/decarb.job0000.drift0002.iter0007.
TCL: Running for 5 steps
TCL: Writing to files with basename ./output/10/decarb.job0000.drift0003.iter0007.
TCL: Running for 5 steps
ETITLE: TS BOND ANGLE DIHED IMPRP ELECT VDW BOUNDARY MISC KINETIC TOTAL TEMP POTENTIAL TOTAL3 TEMPAVG PRESSURE GPRESSURE VOLUME PRESSAVG GPRESSAVG
ENERGY: 1600 15612.5832 10077.1775 1939.8786 113.6330 -195477.3460 17676.6853 0.0000 -64.0249 43390.9630 -106730.4503 301.1291 -150121.4133 -106575.1671 299.7051 -1095.2913 -943.4805 474748.4077 -989.1208 -974.9423
TCL: Writing to files with basename ./output/10/decarb.job0000.drift0004.iter0007.
TCL: Running for 5 steps
ETITLE: TS BOND ANGLE DIHED IMPRP ELECT VDW BOUNDARY MISC KINETIC TOTAL TEMP POTENTIAL TOTAL3 TEMPAVG PRESSURE GPRESSURE VOLUME PRESSAVG GPRESSAVG
ENERGY: 1600 15612.5832 10077.1775 1939.8786 113.6330 -195477.3460 17676.6853 0.0000 -64.0188 43390.9630 -106730.4442 301.1291 -150121.4072 -106643.1754 301.1291 -1088.6591 -937.8557 474748.4077 -1088.6591 -937.8557
TCL: Running for 5 steps
TCL: Running for 5 steps
TCL: Running for 5 steps
TCL: Running for 5 steps
TCL: Running for 5 steps
TCL: Running for 5 steps
TCL: Running for 5 steps
TCL: Running for 5 steps
TCL: Running for 5 steps
TCL: Running for 5 steps
TCL: Running for 5 steps
TCL: Running for 5 steps
TCL: Running for 5 steps
TCL: Running for 5 steps
TCL: Running for 5 steps
TCL: Running for 5 steps
TCL: Running for 5 steps
TCL: Running for 5 steps
TCL: Running for 5 steps
ETITLE: TS BOND ANGLE DIHED IMPRP ELECT VDW BOUNDARY MISC KINETIC TOTAL TEMP POTENTIAL TOTAL3 TEMPAVG PRESSURE GPRESSURE VOLUME PRESSAVG GPRESSAVG
ENERGY: 1700 15675.9479 10234.9851 1937.8467 111.3934 -195459.9994 17548.8310 0.0000 75.4989 43266.7196 -106608.7767 300.2669 -149875.4962 -106544.8162 300.0510 -945.8241 -981.4588 474748.4077 -1021.9314 -993.0244
TCL: Running for 5 steps
ETITLE: TS BOND ANGLE DIHED IMPRP ELECT VDW BOUNDARY MISC KINETIC TOTAL TEMP POTENTIAL TOTAL3 TEMPAVG PRESSURE GPRESSURE VOLUME PRESSAVG GPRESSAVG
ENERGY: 1700 15675.9479 10234.9851 1937.8467 111.3934 -195459.9994 17548.8310 0.0000 79.4363 43266.7196 -106604.8393 300.2669 -149871.5589 -106514.0730 300.2669 -949.6370 -982.6845 474748.4077 -949.6370 -982.6845
TCL: Running for 5 steps
TCL: Running for 5 steps
TCL: Running for 5 steps
TCL: Running for 5 steps
TCL: Running for 5 steps
TCL: Running for 5 steps
TCL: Running for 5 steps
TCL: Running for 5 steps
TCL: Running for 5 steps
TCL: Running for 5 steps
TCL: Running for 5 steps
TCL: Running for 5 steps
TCL: Running for 5 steps
TCL: Running for 5 steps
TCL: Running for 5 steps
TCL: Running for 5 steps
TCL: Running for 5 steps
TCL: Running for 5 steps
TCL: Running for 5 steps
ETITLE: TS BOND ANGLE DIHED IMPRP ELECT VDW BOUNDARY MISC KINETIC TOTAL TEMP POTENTIAL TOTAL3 TEMPAVG PRESSURE GPRESSURE VOLUME PRESSAVG GPRESSAVG
ENERGY: 1800 15762.2300 10184.2189 1925.8579 121.0194 -195413.6363 17393.4406 0.0000 -13.3599 43030.3313 -107009.8983 298.6264 -150040.2296 -106923.7166 300.4067 -1342.4281 -1203.7942 474748.4077 -1175.6647 -1154.8366
TCL: Writing to files with basename ./output/10/decarb.job0000.image0010.iter0007.
TCL: Running for 5 steps
ETITLE: TS BOND ANGLE DIHED IMPRP ELECT VDW BOUNDARY MISC KINETIC TOTAL TEMP POTENTIAL TOTAL3 TEMPAVG PRESSURE GPRESSURE VOLUME PRESSAVG GPRESSAVG
ENERGY: 1800 15762.2300 10184.2189 1925.8579 121.0194 -195413.6363 17393.4406 0.0000 -15.1987 43030.3313 -107011.7371 298.6264 -150042.0683 -106914.8862 298.6264 -1329.8756 -1189.6060 474748.4077 -1329.8756 -1189.6060
TCL: Writing to files with basename ./output/10/decarb.job0000.drift0000.iter0008.
TCL: Running for 5 steps
TCL: Writing to files with basename ./output/10/decarb.job0000.drift0001.iter0008.
TCL: Running for 5 steps
TCL: Writing to files with basename ./output/10/decarb.job0000.drift0002.iter0008.
TCL: Running for 5 steps
TCL: Writing to files with basename ./output/10/decarb.job0000.drift0003.iter0008.
TCL: Running for 5 steps
TCL: Writing to files with basename ./output/10/decarb.job0000.drift0004.iter0008.
TCL: Running for 5 steps
TCL: Running for 5 steps
TCL: Running for 5 steps
TCL: Running for 5 steps
TCL: Running for 5 steps
TCL: Running for 5 steps
TCL: Running for 5 steps
TCL: Running for 5 steps
TCL: Running for 5 steps
TCL: Running for 5 steps
TCL: Running for 5 steps
TCL: Running for 5 steps
TCL: Running for 5 steps
TCL: Running for 5 steps
TCL: Running for 5 steps
ETITLE: TS BOND ANGLE DIHED IMPRP ELECT VDW BOUNDARY MISC KINETIC TOTAL TEMP POTENTIAL TOTAL3 TEMPAVG PRESSURE GPRESSURE VOLUME PRESSAVG GPRESSAVG
ENERGY: 1900 15607.2654 10072.5599 1903.2264 118.3595 -195443.0693 17352.0783 0.0000 -142.7049 43479.1262 -107053.1586 301.7410 -150532.2848 -106897.8606 300.2219 -1216.7022 -1180.9214 474748.4077 -1290.9968 -1234.1494
TCL: Running for 5 steps
ETITLE: TS BOND ANGLE DIHED IMPRP ELECT VDW BOUNDARY MISC KINETIC TOTAL TEMP POTENTIAL TOTAL3 TEMPAVG PRESSURE GPRESSURE VOLUME PRESSAVG GPRESSAVG
ENERGY: 1900 15607.2654 10072.5599 1903.2264 118.3595 -195443.0693 17352.0783 0.0000 -141.7816 43479.1262 -107052.2353 301.7410 -150531.3614 -106957.4739 301.7410 -1211.2221 -1178.3742 474748.4077 -1211.2221 -1178.3742
TCL: Running for 5 steps
TCL: Running for 5 steps
TCL: Running for 5 steps
TCL: Running for 5 steps
TCL: Running for 5 steps
TCL: Running for 5 steps
TCL: Running for 5 steps
TCL: Running for 5 steps
TCL: Running for 5 steps
TCL: Running for 5 steps
TCL: Running for 5 steps
TCL: Running for 5 steps
TCL: Running for 5 steps
TCL: Running for 5 steps
TCL: Running for 5 steps
TCL: Running for 5 steps
TCL: Running for 5 steps
TCL: Running for 5 steps
TCL: Running for 5 steps
ETITLE: TS BOND ANGLE DIHED IMPRP ELECT VDW BOUNDARY MISC KINETIC TOTAL TEMP POTENTIAL TOTAL3 TEMPAVG PRESSURE GPRESSURE VOLUME PRESSAVG GPRESSAVG
ENERGY: 2000 15570.4918 10090.3467 1930.2596 103.4267 -195297.8014 17481.1143 0.0000 -63.9001 43517.5098 -106668.5525 302.0074 -150186.0623 -106576.7037 299.3599 -947.8913 -1016.7744 474748.4077 -1191.2537 -1182.7716
TCL: Running for 5 steps
