Info: SIMULATION PARAMETERS:
Info: TIMESTEP               0.5
Info: NUMBER OF STEPS        0
Info: STEPS PER CYCLE        1
Info: PERIODIC CELL BASIS 1  78.0108 0 0
Info: PERIODIC CELL BASIS 2  0 78.0108 0
Info: PERIODIC CELL BASIS 3  0 0 78.0108
Info: PERIODIC CELL CENTER   0 0 0
Info: FIRST LDB TIMESTEP     1
Info: LAST LDB TIMESTEP     -1
Info: HOM BACKGROUND SCALING 1
Info: PME BACKGROUND SCALING 1
Info: MIN ATOMS PER PATCH    40
Info: INITIAL TEMPERATURE    300
Info: CENTER OF MASS MOVING INITIALLY? NO
Info: DIELECTRIC             1
Info: EXCLUDE                SCALED ONE-FOUR
Info: 1-4 ELECTROSTATICS SCALED BY 1
Info: MODIFIED 1-4 VDW PARAMETERS WILL BE USED
Info: NO DCD TRAJECTORY OUTPUT
Info: NO EXTENDED SYSTEM TRAJECTORY OUTPUT
Info: NO VELOCITY DCD OUTPUT
Info: NO FORCE DCD OUTPUT
Info: OUTPUT FILENAME        ./output/14/decarb.job0000
Info: BINARY OUTPUT FILES WILL BE USED
Info: RESTART FILENAME       ./output/14/decarb.job0000.restart
Info: RESTART FREQUENCY      100
Info: BINARY RESTART FILES WILL BE USED
Info: SWITCHING ACTIVE
Info: SWITCHING ON           12
Info: SWITCHING OFF          14
Info: PAIRLIST DISTANCE      15
Info: PAIRLIST SHRINK RATE   0.01
Info: PAIRLIST GROW RATE     0.01
Info: PAIRLIST TRIGGER       0.3
Info: PAIRLISTS PER CYCLE    2
Info: PAIRLISTS ENABLED
Info: MARGIN                 0
Info: HYDROGEN GROUP CUTOFF  2.5
Info: PATCH DIMENSION        17.5
Info: ENERGY OUTPUT STEPS    100
Info: CROSSTERM ENERGY INCLUDED IN DIHEDRAL
Info: TIMING OUTPUT STEPS    100
Info: QM FORCES ACTIVE
Info: QM SOFTWARE: mopac
Info: QM ATOM CHARGES FROM QM SOFTWARE: MULLIKEN
Info: QM EXECUTABLE PATH: /home/melomcr/Projects_melomcr/Programs/MOPAC_GPU/MOPAC2016.exe
Info: QM COLUMN: beta
Info: QM BOND COLUMN: occ
Info: QM WILL DETECT BONDS BETWEEN QM AND MM ATOMS.
Info: QM-MM BOND SCHEME: Charge Shift.
Info: QM Will use PSF charges.
Info: QM BASE DIRECTORY: /dev/shm/NAMD_SM_qmmm
Info: QM CONFIG LINE: PM7 XYZ T=2M 1SCF AUX LET GRAD QMMM THREADS=2
Info: QM CONFIG LINE: decarboxylase
Info: QM POINT CHARGES WILL BE SELECTED EVERY 1 STEPS.
Info: QM Point Charge Switching: ON.
Info: QM Point Charge SCHEME: none.
Info: QM executions per node: 1
Info: COLLECTIVE VARIABLES CALCULATION REQUESTED
Info: COLLECTIVE VARIABLES CONFIGURATION   ./setup/colvars_14.conf
Info: LANGEVIN DYNAMICS ACTIVE
Info: LANGEVIN TEMPERATURE   300
Info: LANGEVIN USING BBK INTEGRATOR
Info: LANGEVIN DAMPING COEFFICIENT IS 200 INVERSE PS
Info: LANGEVIN DYNAMICS APPLIED TO HYDROGENS
Info: PARTICLE MESH EWALD (PME) ACTIVE
Info: PME TOLERANCE               1e-05
Info: PME EWALD COEFFICIENT       0.192342
Info: PME INTERPOLATION ORDER     4
Info: PME GRID DIMENSIONS         80 80 80
Info: PME MAXIMUM GRID SPACING    1
Info: FULL ELECTROSTATIC EVALUATION FREQUENCY      1
Info: USING VERLET I (r-RESPA) MTS SCHEME.
Info: C1 SPLITTING OF LONG RANGE ELECTROSTATICS
Info: PLACING ATOMS IN PATCHES BY HYDROGEN GROUPS
Info: RANDOM NUMBER SEED     37984
Info: USE HYDROGEN BONDS?    NO
Info: COORDINATE PDB         decarboxylase.0.pdb
Info: STRUCTURE FILE         decarboxylase.0.psf
Info: PARAMETER file: CHARMM format!
Info: PARAMETERS             ./toppar/par_all36_prot.prm
Info: PARAMETERS             ./toppar/par_all36_cgenff.prm
Info: PARAMETERS             ./toppar/par_all36_na.prm
Info: PARAMETERS             ./toppar/par_all36_carb.prm
Info: PARAMETERS             ./toppar/par_all36_lipid.prm
Info: PARAMETERS             ./toppar/toppar_water_ions_namd.str
Info: PARAMETERS             ./toppar/ligand.str
Info: USING ARITHMETIC MEAN TO COMBINE L-J SIGMA PARAMETERS
Info: BINARY COORDINATES     ./setup/image_14.coor
Info: SKIPPING rtf SECTION IN STREAM FILE
Info: SKIPPING rtf SECTION IN STREAM FILE
Info: SUMMARY OF PARAMETERS:
Info: 912 BONDS
Info: 2656 ANGLES
Info: 6453 DIHEDRAL
Info: 190 IMPROPER
Info: 6 CROSSTERM
Info: 350 VDW
Info: 6 VDW_PAIRS
Info: 0 NBTHOLE_PAIRS
Info: Using the following PDB file for QM parameters: decarboxylase.0.pdb
Info: Number of QM atoms (excluding Dummy atoms): 35
Info: We found 2 QM-MM bonds.
Info: 1) Group ID: 1 ; Group size: 35 atoms ; Total PSF charge: -1
Info: MM-QM pair: 1005:1007 -> Value (distance or ratio): 1.09 (QM Group 0 ID 1)
Info: MM-QM pair: 3303:3304 -> Value (distance or ratio): 0.99 (QM Group 0 ID 1)
Info: STRUCTURE SUMMARY:
Info: 48341 ATOMS
Info: 33354 BONDS
Info: 21065 ANGLES
Info: 8802 DIHEDRALS
Info: 566 IMPROPERS
Info: 213 CROSSTERMS
Info: 0 EXCLUSIONS
Info: 145023 DEGREES OF FREEDOM
Info: 16669 HYDROGEN GROUPS
Info: 4 ATOMS IN LARGEST HYDROGEN GROUP
Info: 16669 MIGRATION GROUPS
Info: 4 ATOMS IN LARGEST MIGRATION GROUP
Info: TOTAL MASS = 294152 amu
Info: TOTAL CHARGE = 0.999003 e
Info: MASS DENSITY = 1.02889 g/cm^3
Info: ATOM DENSITY = 0.101824 atoms/A^3
Info: The QM region will remove 33 bonds, 52 angles, 61 dihedrals, 4 impropers and 0 crossterms.
Info: ADDED 63124 IMPLICIT EXCLUSIONS
Info: NONBONDED TABLE R-SQUARED SPACING: 0.0625
Info: NONBONDED TABLE SIZE: 769 POINTS
Info: REMOVING COM VELOCITY -0.0285333 -0.0119305 -0.045314
TCL: Running for 5 steps
Info: List of ranks running QM simulations: 0.
ETITLE: TS BOND ANGLE DIHED IMPRP ELECT VDW BOUNDARY MISC KINETIC TOTAL TEMP POTENTIAL TOTAL3 TEMPAVG PRESSURE GPRESSURE VOLUME PRESSAVG GPRESSAVG
ENERGY: 0 15551.0865 10270.3177 1967.5466 120.9239 -196051.6397 18063.6805 0.0000 -312.9764 43305.1639 -107085.8972 300.5337 -150391.0610 -106991.8144 300.5337 -924.8223 -812.2176 474748.4077 -924.8223 -812.2176
TCL: Writing to files with basename ./output/14/decarb.job0000.drift0000.iter0000.
TCL: Running for 5 steps
TCL: Writing to files with basename ./output/14/decarb.job0000.drift0001.iter0000.
TCL: Running for 5 steps
TCL: Writing to files with basename ./output/14/decarb.job0000.drift0002.iter0000.
TCL: Running for 5 steps
TCL: Writing to files with basename ./output/14/decarb.job0000.drift0003.iter0000.
TCL: Running for 5 steps
TCL: Writing to files with basename ./output/14/decarb.job0000.drift0004.iter0000.
TCL: Running for 5 steps
TCL: Running for 5 steps
TCL: Running for 5 steps
TCL: Running for 5 steps
TCL: Running for 5 steps
TCL: Running for 5 steps
TCL: Running for 5 steps
TCL: Running for 5 steps
TCL: Running for 5 steps
TCL: Running for 5 steps
TCL: Running for 5 steps
TCL: Running for 5 steps
TCL: Running for 5 steps
TCL: Running for 5 steps
TCL: Running for 5 steps
ETITLE: TS BOND ANGLE DIHED IMPRP ELECT VDW BOUNDARY MISC KINETIC TOTAL TEMP POTENTIAL TOTAL3 TEMPAVG PRESSURE GPRESSURE VOLUME PRESSAVG GPRESSAVG
ENERGY: 100 15519.7229 10189.6802 1939.7896 126.9694 -196093.7940 18019.3561 0.0000 -200.5738 43329.5499 -107169.2996 300.7029 -150498.8495 -107015.9907 300.4031 -660.8017 -840.1509 474748.4077 -823.1169 -849.3710
TCL: Running for 5 steps
ETITLE: TS BOND ANGLE DIHED IMPRP ELECT VDW BOUNDARY MISC KINETIC TOTAL TEMP POTENTIAL TOTAL3 TEMPAVG PRESSURE GPRESSURE VOLUME PRESSAVG GPRESSAVG
ENERGY: 100 15519.7229 10189.6802 1939.7896 126.9694 -196093.7940 18019.3561 0.0000 -200.2966 43329.5499 -107169.0224 300.7029 -150498.5723 -107066.1942 300.7029 -655.9132 -837.5504 474748.4077 -655.9132 -837.5504
TCL: Running for 5 steps
TCL: Running for 5 steps
TCL: Running for 5 steps
TCL: Running for 5 steps
TCL: Running for 5 steps
TCL: Running for 5 steps
TCL: Running for 5 steps
TCL: Running for 5 steps
TCL: Running for 5 steps
TCL: Running for 5 steps
TCL: Running for 5 steps
TCL: Running for 5 steps
TCL: Running for 5 steps
TCL: Running for 5 steps
TCL: Running for 5 steps
TCL: Running for 5 steps
TCL: Running for 5 steps
TCL: Running for 5 steps
TCL: Running for 5 steps
ETITLE: TS BOND ANGLE DIHED IMPRP ELECT VDW BOUNDARY MISC KINETIC TOTAL TEMP POTENTIAL TOTAL3 TEMPAVG PRESSURE GPRESSURE VOLUME PRESSAVG GPRESSAVG
ENERGY: 200 15580.8595 10322.0410 1951.5874 121.2293 -196193.1991 18118.0038 0.0000 -100.2841 42982.2468 -107217.5153 298.2927 -150199.7621 -107164.7355 299.9881 -898.1995 -877.3528 474748.4077 -831.4715 -842.2818
TCL: Running for 5 steps
ETITLE: TS BOND ANGLE DIHED IMPRP ELECT VDW BOUNDARY MISC KINETIC TOTAL TEMP POTENTIAL TOTAL3 TEMPAVG PRESSURE GPRESSURE VOLUME PRESSAVG GPRESSAVG
ENERGY: 200 15580.8595 10322.0410 1951.5874 121.2293 -196193.1991 18118.0038 0.0000 -99.9895 42982.2468 -107217.2207 298.2927 -150199.4675 -107110.8042 298.2927 -903.4543 -878.1789 474748.4077 -903.4543 -878.1789
TCL: Running for 5 steps
TCL: Running for 5 steps
TCL: Running for 5 steps
TCL: Running for 5 steps
TCL: Writing to files with basename ./output/14/decarb.job0000.image0014.iter0000.
TCL: Running for 5 steps
TCL: Writing to files with basename ./output/14/decarb.job0000.drift0000.iter0001.
TCL: Running for 5 steps
TCL: Writing to files with basename ./output/14/decarb.job0000.drift0001.iter0001.
TCL: Running for 5 steps
TCL: Writing to files with basename ./output/14/decarb.job0000.drift0002.iter0001.
TCL: Running for 5 steps
TCL: Writing to files with basename ./output/14/decarb.job0000.drift0003.iter0001.
TCL: Running for 5 steps
TCL: Writing to files with basename ./output/14/decarb.job0000.drift0004.iter0001.
TCL: Running for 5 steps
TCL: Running for 5 steps
TCL: Running for 5 steps
TCL: Running for 5 steps
TCL: Running for 5 steps
TCL: Running for 5 steps
TCL: Running for 5 steps
TCL: Running for 5 steps
TCL: Running for 5 steps
TCL: Running for 5 steps
ETITLE: TS BOND ANGLE DIHED IMPRP ELECT VDW BOUNDARY MISC KINETIC TOTAL TEMP POTENTIAL TOTAL3 TEMPAVG PRESSURE GPRESSURE VOLUME PRESSAVG GPRESSAVG
ENERGY: 300 15863.2696 10248.0425 1956.4717 113.4158 -196235.3204 18080.5218 0.0000 -57.6014 43395.3711 -106635.8293 301.1597 -150031.2004 -106450.3445 299.8845 -1086.6822 -928.3377 474748.4077 -811.9477 -833.1390
TCL: Running for 5 steps
ETITLE: TS BOND ANGLE DIHED IMPRP ELECT VDW BOUNDARY MISC KINETIC TOTAL TEMP POTENTIAL TOTAL3 TEMPAVG PRESSURE GPRESSURE VOLUME PRESSAVG GPRESSAVG
ENERGY: 300 15863.2696 10248.0425 1956.4717 113.4158 -196235.3204 18080.5218 0.0000 -57.5905 43395.3711 -106635.8184 301.1597 -150031.1895 -106555.4760 301.1597 -1076.4218 -927.3653 474748.4077 -1076.4218 -927.3653
TCL: Running for 5 steps
TCL: Running for 5 steps
TCL: Running for 5 steps
TCL: Running for 5 steps
TCL: Running for 5 steps
TCL: Running for 5 steps
TCL: Running for 5 steps
TCL: Running for 5 steps
TCL: Running for 5 steps
TCL: Running for 5 steps
TCL: Running for 5 steps
TCL: Running for 5 steps
TCL: Running for 5 steps
TCL: Running for 5 steps
TCL: Running for 5 steps
TCL: Running for 5 steps
TCL: Running for 5 steps
TCL: Running for 5 steps
TCL: Running for 5 steps
ETITLE: TS BOND ANGLE DIHED IMPRP ELECT VDW BOUNDARY MISC KINETIC TOTAL TEMP POTENTIAL TOTAL3 TEMPAVG PRESSURE GPRESSURE VOLUME PRESSAVG GPRESSAVG
ENERGY: 400 15666.4311 10145.5456 1947.9283 110.9369 -196492.9625 18150.2459 0.0000 -133.9330 43172.5537 -107433.2540 299.6134 -150605.8077 -107329.4387 299.7568 -981.9533 -772.1144 474748.4077 -842.4307 -860.5393
TCL: Running for 5 steps
ETITLE: TS BOND ANGLE DIHED IMPRP ELECT VDW BOUNDARY MISC KINETIC TOTAL TEMP POTENTIAL TOTAL3 TEMPAVG PRESSURE GPRESSURE VOLUME PRESSAVG GPRESSAVG
ENERGY: 400 15666.4311 10145.5456 1947.9283 110.9369 -196492.9625 18150.2459 0.0000 -133.7910 43172.5537 -107433.1120 299.6134 -150605.6658 -107340.3830 299.6134 -981.1812 -771.4870 474748.4077 -981.1812 -771.4870
TCL: Running for 5 steps
TCL: Running for 5 steps
TCL: Running for 5 steps
TCL: Running for 5 steps
TCL: Running for 5 steps
TCL: Running for 5 steps
TCL: Running for 5 steps
TCL: Running for 5 steps
TCL: Running for 5 steps
TCL: Writing to files with basename ./output/14/decarb.job0000.image0014.iter0001.
TCL: Running for 5 steps
TCL: Writing to files with basename ./output/14/decarb.job0000.drift0000.iter0002.
TCL: Running for 5 steps
TCL: Writing to files with basename ./output/14/decarb.job0000.drift0001.iter0002.
TCL: Running for 5 steps
TCL: Writing to files with basename ./output/14/decarb.job0000.drift0002.iter0002.
TCL: Running for 5 steps
TCL: Writing to files with basename ./output/14/decarb.job0000.drift0003.iter0002.
TCL: Running for 5 steps
TCL: Writing to files with basename ./output/14/decarb.job0000.drift0004.iter0002.
TCL: Running for 5 steps
TCL: Running for 5 steps
TCL: Running for 5 steps
TCL: Running for 5 steps
TCL: Running for 5 steps
ETITLE: TS BOND ANGLE DIHED IMPRP ELECT VDW BOUNDARY MISC KINETIC TOTAL TEMP POTENTIAL TOTAL3 TEMPAVG PRESSURE GPRESSURE VOLUME PRESSAVG GPRESSAVG
ENERGY: 500 15657.2970 10230.1275 1954.2628 120.7984 -196469.8096 18073.1839 0.0000 -86.4701 43468.1315 -107052.4787 301.6647 -150520.6101 -106993.2711 299.7018 -927.6199 -867.6374 474748.4077 -847.3611 -798.3789
TCL: Running for 5 steps
ETITLE: TS BOND ANGLE DIHED IMPRP ELECT VDW BOUNDARY MISC KINETIC TOTAL TEMP POTENTIAL TOTAL3 TEMPAVG PRESSURE GPRESSURE VOLUME PRESSAVG GPRESSAVG
ENERGY: 500 15657.2970 10230.1275 1954.2628 120.7984 -196469.8096 18073.1839 0.0000 -86.4674 43468.1315 -107052.4760 301.6647 -150520.6075 -106966.9612 301.6647 -930.1784 -869.6826 474748.4077 -930.1784 -869.6826
TCL: Running for 5 steps
TCL: Running for 5 steps
TCL: Running for 5 steps
TCL: Running for 5 steps
TCL: Running for 5 steps
TCL: Running for 5 steps
TCL: Running for 5 steps
TCL: Running for 5 steps
TCL: Running for 5 steps
TCL: Running for 5 steps
TCL: Running for 5 steps
TCL: Running for 5 steps
TCL: Running for 5 steps
TCL: Running for 5 steps
TCL: Running for 5 steps
TCL: Running for 5 steps
TCL: Running for 5 steps
TCL: Running for 5 steps
TCL: Running for 5 steps
ETITLE: TS BOND ANGLE DIHED IMPRP ELECT VDW BOUNDARY MISC KINETIC TOTAL TEMP POTENTIAL TOTAL3 TEMPAVG PRESSURE GPRESSURE VOLUME PRESSAVG GPRESSAVG
ENERGY: 600 15555.1029 10461.3333 1943.2703 106.8016 -196536.8166 18136.0482 0.0000 -46.2987 43312.9318 -107067.6271 300.5876 -150380.5590 -107048.1091 299.9244 -481.4773 -834.7553 474748.4077 -811.8250 -814.7474
TCL: Running for 5 steps
ETITLE: TS BOND ANGLE DIHED IMPRP ELECT VDW BOUNDARY MISC KINETIC TOTAL TEMP POTENTIAL TOTAL3 TEMPAVG PRESSURE GPRESSURE VOLUME PRESSAVG GPRESSAVG
ENERGY: 600 15555.1029 10461.3333 1943.2703 106.8016 -196536.8166 18136.0482 0.0000 -46.2683 43312.9318 -107067.5967 300.5876 -150380.5286 -106978.9965 300.5876 -488.2132 -836.1885 474748.4077 -488.2132 -836.1885
TCL: Running for 5 steps
TCL: Running for 5 steps
TCL: Running for 5 steps
TCL: Running for 5 steps
TCL: Running for 5 steps
TCL: Running for 5 steps
TCL: Running for 5 steps
TCL: Running for 5 steps
TCL: Running for 5 steps
TCL: Running for 5 steps
TCL: Running for 5 steps
TCL: Running for 5 steps
TCL: Running for 5 steps
TCL: Running for 5 steps
TCL: Writing to files with basename ./output/14/decarb.job0000.image0014.iter0002.
TCL: Running for 5 steps
TCL: Writing to files with basename ./output/14/decarb.job0000.drift0000.iter0003.
TCL: Running for 5 steps
TCL: Writing to files with basename ./output/14/decarb.job0000.drift0001.iter0003.
TCL: Running for 5 steps
TCL: Writing to files with basename ./output/14/decarb.job0000.drift0002.iter0003.
TCL: Running for 5 steps
TCL: Writing to files with basename ./output/14/decarb.job0000.drift0003.iter0003.
TCL: Running for 5 steps
ETITLE: TS BOND ANGLE DIHED IMPRP ELECT VDW BOUNDARY MISC KINETIC TOTAL TEMP POTENTIAL TOTAL3 TEMPAVG PRESSURE GPRESSURE VOLUME PRESSAVG GPRESSAVG
ENERGY: 700 15752.5178 10306.2362 1938.0677 104.7013 -196705.7074 18248.7433 0.0000 -93.6592 43264.1463 -107184.9539 300.2490 -150449.1003 -107070.9899 300.1544 -1061.9828 -824.9566 474748.4077 -945.6972 -848.3881
TCL: Writing to files with basename ./output/14/decarb.job0000.drift0004.iter0003.
TCL: Running for 5 steps
ETITLE: TS BOND ANGLE DIHED IMPRP ELECT VDW BOUNDARY MISC KINETIC TOTAL TEMP POTENTIAL TOTAL3 TEMPAVG PRESSURE GPRESSURE VOLUME PRESSAVG GPRESSAVG
ENERGY: 700 15752.5178 10306.2362 1938.0677 104.7013 -196705.7074 18248.7433 0.0000 -93.6582 43264.1463 -107184.9529 300.2490 -150449.0993 -107104.5582 300.2490 -1058.7083 -823.2357 474748.4077 -1058.7083 -823.2357
TCL: Running for 5 steps
TCL: Running for 5 steps
TCL: Running for 5 steps
TCL: Running for 5 steps
TCL: Running for 5 steps
TCL: Running for 5 steps
TCL: Running for 5 steps
TCL: Running for 5 steps
TCL: Running for 5 steps
TCL: Running for 5 steps
TCL: Running for 5 steps
TCL: Running for 5 steps
TCL: Running for 5 steps
TCL: Running for 5 steps
TCL: Running for 5 steps
TCL: Running for 5 steps
TCL: Running for 5 steps
TCL: Running for 5 steps
TCL: Running for 5 steps
ETITLE: TS BOND ANGLE DIHED IMPRP ELECT VDW BOUNDARY MISC KINETIC TOTAL TEMP POTENTIAL TOTAL3 TEMPAVG PRESSURE GPRESSURE VOLUME PRESSAVG GPRESSAVG
ENERGY: 800 15526.6887 10103.7332 1913.6256 110.6058 -196568.0654 18241.9622 0.0000 -123.6960 42886.5224 -107908.6236 297.6284 -150795.1460 -107836.3700 299.7837 -979.5053 -943.1140 474748.4077 -892.8113 -903.8714
TCL: Running for 5 steps
ETITLE: TS BOND ANGLE DIHED IMPRP ELECT VDW BOUNDARY MISC KINETIC TOTAL TEMP POTENTIAL TOTAL3 TEMPAVG PRESSURE GPRESSURE VOLUME PRESSAVG GPRESSAVG
ENERGY: 800 15526.6887 10103.7332 1913.6256 110.6058 -196568.0654 18241.9622 0.0000 -123.3377 42886.5224 -107908.2653 297.6284 -150794.7877 -107797.1946 297.6284 -982.8127 -947.6954 474748.4077 -982.8127 -947.6954
TCL: Running for 5 steps
TCL: Running for 5 steps
TCL: Running for 5 steps
TCL: Running for 5 steps
TCL: Running for 5 steps
TCL: Running for 5 steps
TCL: Running for 5 steps
TCL: Running for 5 steps
TCL: Running for 5 steps
TCL: Running for 5 steps
TCL: Running for 5 steps
TCL: Running for 5 steps
TCL: Running for 5 steps
TCL: Running for 5 steps
TCL: Running for 5 steps
TCL: Running for 5 steps
TCL: Running for 5 steps
TCL: Running for 5 steps
TCL: Running for 5 steps
ETITLE: TS BOND ANGLE DIHED IMPRP ELECT VDW BOUNDARY MISC KINETIC TOTAL TEMP POTENTIAL TOTAL3 TEMPAVG PRESSURE GPRESSURE VOLUME PRESSAVG GPRESSAVG
ENERGY: 900 15772.6364 10347.9298 1925.3972 113.9630 -196848.7224 18163.0394 0.0000 2.9270 43359.0034 -107163.8261 300.9073 -150522.8296 -107105.1543 300.2128 -1093.8005 -888.7314 474748.4077 -911.0849 -919.1825
TCL: Writing to files with basename ./output/14/decarb.job0000.image0014.iter0003.
TCL: Running for 5 steps
ETITLE: TS BOND ANGLE DIHED IMPRP ELECT VDW BOUNDARY MISC KINETIC TOTAL TEMP POTENTIAL TOTAL3 TEMPAVG PRESSURE GPRESSURE VOLUME PRESSAVG GPRESSAVG
ENERGY: 900 15772.6364 10347.9298 1925.3972 113.9630 -196848.7224 18163.0394 0.0000 1.9253 43359.0034 -107164.8279 300.9073 -150523.8313 -107074.5892 300.9073 -1094.4781 -879.8007 474748.4077 -1094.4781 -879.8007
TCL: Writing to files with basename ./output/14/decarb.job0000.drift0000.iter0004.
TCL: Running for 5 steps
TCL: Writing to files with basename ./output/14/decarb.job0000.drift0001.iter0004.
TCL: Running for 5 steps
TCL: Writing to files with basename ./output/14/decarb.job0000.drift0002.iter0004.
TCL: Running for 5 steps
TCL: Writing to files with basename ./output/14/decarb.job0000.drift0003.iter0004.
TCL: Running for 5 steps
TCL: Writing to files with basename ./output/14/decarb.job0000.drift0004.iter0004.
TCL: Running for 5 steps
TCL: Running for 5 steps
TCL: Running for 5 steps
TCL: Running for 5 steps
TCL: Running for 5 steps
TCL: Running for 5 steps
TCL: Running for 5 steps
TCL: Running for 5 steps
TCL: Running for 5 steps
TCL: Running for 5 steps
TCL: Running for 5 steps
TCL: Running for 5 steps
TCL: Running for 5 steps
TCL: Running for 5 steps
TCL: Running for 5 steps
ETITLE: TS BOND ANGLE DIHED IMPRP ELECT VDW BOUNDARY MISC KINETIC TOTAL TEMP POTENTIAL TOTAL3 TEMPAVG PRESSURE GPRESSURE VOLUME PRESSAVG GPRESSAVG
ENERGY: 1000 15758.4523 10392.5079 1932.2617 111.9031 -197035.7148 18387.7012 0.0000 -140.1169 43013.8766 -107579.1290 298.5122 -150593.0056 -107485.1557 300.1643 -897.1666 -758.9577 474748.4077 -866.5952 -822.5742
TCL: Running for 5 steps
ETITLE: TS BOND ANGLE DIHED IMPRP ELECT VDW BOUNDARY MISC KINETIC TOTAL TEMP POTENTIAL TOTAL3 TEMPAVG PRESSURE GPRESSURE VOLUME PRESSAVG GPRESSAVG
ENERGY: 1000 15758.4523 10392.5079 1932.2617 111.9031 -197035.7148 18387.7012 0.0000 -139.9439 43013.8766 -107578.9559 298.5122 -150592.8326 -107478.9119 298.5122 -897.6329 -756.4627 474748.4077 -897.6329 -756.4627
TCL: Running for 5 steps
TCL: Running for 5 steps
TCL: Running for 5 steps
TCL: Running for 5 steps
TCL: Running for 5 steps
TCL: Running for 5 steps
TCL: Running for 5 steps
TCL: Running for 5 steps
TCL: Running for 5 steps
TCL: Running for 5 steps
TCL: Running for 5 steps
TCL: Running for 5 steps
TCL: Running for 5 steps
TCL: Running for 5 steps
TCL: Running for 5 steps
TCL: Running for 5 steps
TCL: Running for 5 steps
TCL: Running for 5 steps
TCL: Running for 5 steps
ETITLE: TS BOND ANGLE DIHED IMPRP ELECT VDW BOUNDARY MISC KINETIC TOTAL TEMP POTENTIAL TOTAL3 TEMPAVG PRESSURE GPRESSURE VOLUME PRESSAVG GPRESSAVG
ENERGY: 1100 15325.8777 10242.4177 1941.7555 109.2106 -196295.7080 18253.2066 0.0000 -94.1789 43471.3576 -107046.0612 301.6871 -150517.4187 -106844.6419 299.7938 -285.2657 -845.8801 474748.4077 -825.0306 -809.3210
TCL: Running for 5 steps
ETITLE: TS BOND ANGLE DIHED IMPRP ELECT VDW BOUNDARY MISC KINETIC TOTAL TEMP POTENTIAL TOTAL3 TEMPAVG PRESSURE GPRESSURE VOLUME PRESSAVG GPRESSAVG
ENERGY: 1100 15325.8777 10242.4177 1941.7555 109.2106 -196295.7080 18253.2066 0.0000 -93.9616 43471.3576 -107045.8438 301.6871 -150517.2014 -106961.8327 301.6871 -275.2755 -843.2736 474748.4077 -275.2755 -843.2736
TCL: Running for 5 steps
TCL: Running for 5 steps
TCL: Running for 5 steps
TCL: Running for 5 steps
TCL: Writing to files with basename ./output/14/decarb.job0000.image0014.iter0004.
TCL: Running for 5 steps
TCL: Writing to files with basename ./output/14/decarb.job0000.drift0000.iter0005.
TCL: Running for 5 steps
TCL: Writing to files with basename ./output/14/decarb.job0000.drift0001.iter0005.
TCL: Running for 5 steps
TCL: Writing to files with basename ./output/14/decarb.job0000.drift0002.iter0005.
TCL: Running for 5 steps
TCL: Writing to files with basename ./output/14/decarb.job0000.drift0003.iter0005.
TCL: Running for 5 steps
TCL: Writing to files with basename ./output/14/decarb.job0000.drift0004.iter0005.
TCL: Running for 5 steps
TCL: Running for 5 steps
TCL: Running for 5 steps
TCL: Running for 5 steps
TCL: Running for 5 steps
TCL: Running for 5 steps
TCL: Running for 5 steps
TCL: Running for 5 steps
TCL: Running for 5 steps
TCL: Running for 5 steps
ETITLE: TS BOND ANGLE DIHED IMPRP ELECT VDW BOUNDARY MISC KINETIC TOTAL TEMP POTENTIAL TOTAL3 TEMPAVG PRESSURE GPRESSURE VOLUME PRESSAVG GPRESSAVG
ENERGY: 1200 15576.5497 10120.2818 1943.2544 119.5886 -196547.6639 18331.8599 0.0000 -31.6674 43021.6809 -107466.1158 298.5664 -150487.7968 -107380.9987 300.5761 -698.1029 -801.4288 474748.4077 -911.6300 -808.6403
TCL: Running for 5 steps
ETITLE: TS BOND ANGLE DIHED IMPRP ELECT VDW BOUNDARY MISC KINETIC TOTAL TEMP POTENTIAL TOTAL3 TEMPAVG PRESSURE GPRESSURE VOLUME PRESSAVG GPRESSAVG
ENERGY: 1200 15576.5497 10120.2818 1943.2544 119.5886 -196547.6639 18331.8599 0.0000 -31.6526 43021.6809 -107466.1011 298.5664 -150487.7820 -107361.9091 298.5664 -700.0038 -803.5690 474748.4077 -700.0038 -803.5690
TCL: Running for 5 steps
TCL: Running for 5 steps
TCL: Running for 5 steps
TCL: Running for 5 steps
TCL: Running for 5 steps
TCL: Running for 5 steps
TCL: Running for 5 steps
TCL: Running for 5 steps
TCL: Running for 5 steps
TCL: Running for 5 steps
TCL: Running for 5 steps
TCL: Running for 5 steps
TCL: Running for 5 steps
TCL: Running for 5 steps
TCL: Running for 5 steps
TCL: Running for 5 steps
TCL: Running for 5 steps
TCL: Running for 5 steps
TCL: Running for 5 steps
ETITLE: TS BOND ANGLE DIHED IMPRP ELECT VDW BOUNDARY MISC KINETIC TOTAL TEMP POTENTIAL TOTAL3 TEMPAVG PRESSURE GPRESSURE VOLUME PRESSAVG GPRESSAVG
ENERGY: 1300 15812.4045 10178.0497 1945.5330 123.3423 -196775.8794 18311.1358 0.0000 -213.5477 42976.8678 -107642.0940 298.2554 -150618.9618 -107536.3692 299.5876 -1089.3041 -813.6111 474748.4077 -779.4653 -795.0153
TCL: Running for 5 steps
ETITLE: TS BOND ANGLE DIHED IMPRP ELECT VDW BOUNDARY MISC KINETIC TOTAL TEMP POTENTIAL TOTAL3 TEMPAVG PRESSURE GPRESSURE VOLUME PRESSAVG GPRESSAVG
ENERGY: 1300 15812.4045 10178.0497 1945.5330 123.3423 -196775.8794 18311.1358 0.0000 -213.1564 42976.8678 -107641.7027 298.2554 -150618.5705 -107541.4292 298.2554 -1089.1961 -815.7033 474748.4077 -1089.1961 -815.7033
TCL: Running for 5 steps
TCL: Running for 5 steps
TCL: Running for 5 steps
TCL: Running for 5 steps
TCL: Running for 5 steps
TCL: Running for 5 steps
TCL: Running for 5 steps
TCL: Running for 5 steps
TCL: Running for 5 steps
TCL: Writing to files with basename ./output/14/decarb.job0000.image0014.iter0005.
TCL: Running for 5 steps
TCL: Writing to files with basename ./output/14/decarb.job0000.drift0000.iter0006.
TCL: Running for 5 steps
TCL: Writing to files with basename ./output/14/decarb.job0000.drift0001.iter0006.
TCL: Running for 5 steps
TCL: Writing to files with basename ./output/14/decarb.job0000.drift0002.iter0006.
TCL: Running for 5 steps
TCL: Writing to files with basename ./output/14/decarb.job0000.drift0003.iter0006.
TCL: Running for 5 steps
TCL: Writing to files with basename ./output/14/decarb.job0000.drift0004.iter0006.
TCL: Running for 5 steps
TCL: Running for 5 steps
TCL: Running for 5 steps
TCL: Running for 5 steps
TCL: Running for 5 steps
ETITLE: TS BOND ANGLE DIHED IMPRP ELECT VDW BOUNDARY MISC KINETIC TOTAL TEMP POTENTIAL TOTAL3 TEMPAVG PRESSURE GPRESSURE VOLUME PRESSAVG GPRESSAVG
ENERGY: 1400 15810.9632 10314.1243 1946.3603 117.9334 -196750.6464 18218.5972 0.0000 -153.7615 43286.1754 -107210.2540 300.4019 -150496.4294 -107306.4084 300.0291 -999.3254 -793.2435 474748.4077 -739.8536 -833.6792
TCL: Running for 5 steps
ETITLE: TS BOND ANGLE DIHED IMPRP ELECT VDW BOUNDARY MISC KINETIC TOTAL TEMP POTENTIAL TOTAL3 TEMPAVG PRESSURE GPRESSURE VOLUME PRESSAVG GPRESSAVG
ENERGY: 1400 15810.9632 10314.1243 1946.3603 117.9334 -196750.6464 18218.5972 0.0000 -153.7549 43286.1754 -107210.2475 300.4019 -150496.4229 -107126.1302 300.4019 -1016.9286 -797.3591 474748.4077 -1016.9286 -797.3591
TCL: Running for 5 steps
TCL: Running for 5 steps
TCL: Running for 5 steps
TCL: Running for 5 steps
TCL: Running for 5 steps
TCL: Running for 5 steps
TCL: Running for 5 steps
TCL: Running for 5 steps
TCL: Running for 5 steps
TCL: Running for 5 steps
TCL: Running for 5 steps
TCL: Running for 5 steps
TCL: Running for 5 steps
TCL: Running for 5 steps
TCL: Running for 5 steps
TCL: Running for 5 steps
TCL: Running for 5 steps
TCL: Running for 5 steps
TCL: Running for 5 steps
ETITLE: TS BOND ANGLE DIHED IMPRP ELECT VDW BOUNDARY MISC KINETIC TOTAL TEMP POTENTIAL TOTAL3 TEMPAVG PRESSURE GPRESSURE VOLUME PRESSAVG GPRESSAVG
ENERGY: 1500 15739.1185 10247.5585 1942.7702 125.3708 -196794.2346 18311.2076 0.0000 -125.3962 43147.7837 -107405.8215 299.4415 -150553.6052 -107328.5751 299.9570 -927.1818 -824.6510 474748.4077 -812.0071 -842.8392
TCL: Running for 5 steps
ETITLE: TS BOND ANGLE DIHED IMPRP ELECT VDW BOUNDARY MISC KINETIC TOTAL TEMP POTENTIAL TOTAL3 TEMPAVG PRESSURE GPRESSURE VOLUME PRESSAVG GPRESSAVG
ENERGY: 1500 15739.1185 10247.5585 1942.7702 125.3708 -196794.2346 18311.2076 0.0000 -125.2616 43147.7837 -107405.6868 299.4415 -150553.4705 -107310.6724 299.4415 -928.7526 -827.0939 474748.4077 -928.7526 -827.0939
TCL: Running for 5 steps
TCL: Running for 5 steps
TCL: Running for 5 steps
TCL: Running for 5 steps
TCL: Running for 5 steps
TCL: Running for 5 steps
TCL: Running for 5 steps
TCL: Running for 5 steps
TCL: Running for 5 steps
TCL: Running for 5 steps
TCL: Running for 5 steps
TCL: Running for 5 steps
TCL: Running for 5 steps
TCL: Running for 5 steps
TCL: Writing to files with basename ./output/14/decarb.job0000.image0014.iter0006.
TCL: Running for 5 steps
TCL: Writing to files with basename ./output/14/decarb.job0000.drift0000.iter0007.
TCL: Running for 5 steps
TCL: Writing to files with basename ./output/14/decarb.job0000.drift0001.iter0007.
TCL: Running for 5 steps
TCL: Writing to files with basename ./output/14/decarb.job0000.drift0002.iter0007.
TCL: Running for 5 steps
TCL: Writing to files with basename ./output/14/decarb.job0000.drift0003.iter0007.
TCL: Running for 5 steps
ETITLE: TS BOND ANGLE DIHED IMPRP ELECT VDW BOUNDARY MISC KINETIC TOTAL TEMP POTENTIAL TOTAL3 TEMPAVG PRESSURE GPRESSURE VOLUME PRESSAVG GPRESSAVG
ENERGY: 1600 15715.5549 10097.1962 1941.0315 121.3634 -196865.1863 18349.6899 0.0000 -216.0161 43324.6740 -107531.6927 300.6691 -150856.3667 -107481.2478 300.2033 -980.4857 -752.2542 474748.4077 -854.1227 -805.3123
TCL: Writing to files with basename ./output/14/decarb.job0000.drift0004.iter0007.
TCL: Running for 5 steps
ETITLE: TS BOND ANGLE DIHED IMPRP ELECT VDW BOUNDARY MISC KINETIC TOTAL TEMP POTENTIAL TOTAL3 TEMPAVG PRESSURE GPRESSURE VOLUME PRESSAVG GPRESSAVG
ENERGY: 1600 15715.5549 10097.1962 1941.0315 121.3634 -196865.1863 18349.6899 0.0000 -216.0156 43324.6740 -107531.6922 300.6691 -150856.3662 -107430.8798 300.6691 -985.4023 -752.9924 474748.4077 -985.4023 -752.9924
TCL: Running for 5 steps
TCL: Running for 5 steps
TCL: Running for 5 steps
TCL: Running for 5 steps
TCL: Running for 5 steps
TCL: Running for 5 steps
TCL: Running for 5 steps
TCL: Running for 5 steps
TCL: Running for 5 steps
TCL: Running for 5 steps
TCL: Running for 5 steps
TCL: Running for 5 steps
TCL: Running for 5 steps
TCL: Running for 5 steps
TCL: Running for 5 steps
TCL: Running for 5 steps
TCL: Running for 5 steps
TCL: Running for 5 steps
TCL: Running for 5 steps
ETITLE: TS BOND ANGLE DIHED IMPRP ELECT VDW BOUNDARY MISC KINETIC TOTAL TEMP POTENTIAL TOTAL3 TEMPAVG PRESSURE GPRESSURE VOLUME PRESSAVG GPRESSAVG
ENERGY: 1700 15599.9675 10276.2198 1930.9805 102.1732 -196854.0801 18303.1544 0.0000 -225.8733 43249.3451 -107618.1128 300.1463 -150867.4579 -107461.1874 299.9425 -617.4896 -889.0554 474748.4077 -812.5792 -825.1854
TCL: Running for 5 steps
ETITLE: TS BOND ANGLE DIHED IMPRP ELECT VDW BOUNDARY MISC KINETIC TOTAL TEMP POTENTIAL TOTAL3 TEMPAVG PRESSURE GPRESSURE VOLUME PRESSAVG GPRESSAVG
ENERGY: 1700 15599.9675 10276.2198 1930.9805 102.1732 -196854.0801 18303.1544 0.0000 -224.6801 43249.3451 -107616.9196 300.1463 -150866.2647 -107525.8259 300.1463 -611.6807 -887.4005 474748.4077 -611.6807 -887.4005
TCL: Running for 5 steps
TCL: Running for 5 steps
TCL: Running for 5 steps
TCL: Running for 5 steps
TCL: Running for 5 steps
TCL: Running for 5 steps
TCL: Running for 5 steps
TCL: Running for 5 steps
TCL: Running for 5 steps
TCL: Running for 5 steps
TCL: Running for 5 steps
TCL: Running for 5 steps
TCL: Running for 5 steps
TCL: Running for 5 steps
TCL: Running for 5 steps
TCL: Running for 5 steps
TCL: Running for 5 steps
TCL: Running for 5 steps
TCL: Running for 5 steps
ETITLE: TS BOND ANGLE DIHED IMPRP ELECT VDW BOUNDARY MISC KINETIC TOTAL TEMP POTENTIAL TOTAL3 TEMPAVG PRESSURE GPRESSURE VOLUME PRESSAVG GPRESSAVG
ENERGY: 1800 15739.6359 10129.2446 1941.5000 114.7436 -197033.4442 18397.5692 0.0000 -201.5644 43121.6030 -107790.7124 299.2598 -150912.3154 -107671.4762 300.2383 -812.6348 -763.9035 474748.4077 -791.8122 -811.3178
TCL: Writing to files with basename ./output/14/decarb.job0000.image0014.iter0007.
TCL: Running for 5 steps
ETITLE: TS BOND ANGLE DIHED IMPRP ELECT VDW BOUNDARY MISC KINETIC TOTAL TEMP POTENTIAL TOTAL3 TEMPAVG PRESSURE GPRESSURE VOLUME PRESSAVG GPRESSAVG
ENERGY: 1800 15739.6359 10129.2446 1941.5000 114.7436 -197033.4442 18397.5692 0.0000 -203.7560 43121.6030 -107792.9039 299.2598 -150914.5070 -107691.3211 299.2598 -822.2976 -776.7471 474748.4077 -822.2976 -776.7471
TCL: Writing to files with basename ./output/14/decarb.job0000.drift0000.iter0008.
TCL: Running for 5 steps
TCL: Writing to files with basename ./output/14/decarb.job0000.drift0001.iter0008.
TCL: Running for 5 steps
TCL: Writing to files with basename ./output/14/decarb.job0000.drift0002.iter0008.
TCL: Running for 5 steps
TCL: Writing to files with basename ./output/14/decarb.job0000.drift0003.iter0008.
TCL: Running for 5 steps
TCL: Writing to files with basename ./output/14/decarb.job0000.drift0004.iter0008.
TCL: Running for 5 steps
TCL: Running for 5 steps
TCL: Running for 5 steps
TCL: Running for 5 steps
TCL: Running for 5 steps
TCL: Running for 5 steps
TCL: Running for 5 steps
TCL: Running for 5 steps
TCL: Running for 5 steps
TCL: Running for 5 steps
TCL: Running for 5 steps
TCL: Running for 5 steps
TCL: Running for 5 steps
TCL: Running for 5 steps
TCL: Running for 5 steps
ETITLE: TS BOND ANGLE DIHED IMPRP ELECT VDW BOUNDARY MISC KINETIC TOTAL TEMP POTENTIAL TOTAL3 TEMPAVG PRESSURE GPRESSURE VOLUME PRESSAVG GPRESSAVG
ENERGY: 1900 15919.5661 10157.2788 1928.2155 114.8757 -196874.8206 18183.1798 0.0000 -224.0765 42945.9291 -107849.8522 298.0407 -150795.7813 -107784.3491 299.3961 -1222.7160 -815.5031 474748.4077 -765.5446 -776.9362
TCL: Running for 5 steps
ETITLE: TS BOND ANGLE DIHED IMPRP ELECT VDW BOUNDARY MISC KINETIC TOTAL TEMP POTENTIAL TOTAL3 TEMPAVG PRESSURE GPRESSURE VOLUME PRESSAVG GPRESSAVG
ENERGY: 1900 15919.5661 10157.2788 1928.2155 114.8757 -196874.8206 18183.1798 0.0000 -223.8694 42945.9291 -107849.6451 298.0407 -150795.5742 -107746.6887 298.0407 -1226.6830 -818.7833 474748.4077 -1226.6830 -818.7833
TCL: Running for 5 steps
TCL: Running for 5 steps
TCL: Running for 5 steps
TCL: Running for 5 steps
TCL: Running for 5 steps
TCL: Running for 5 steps
TCL: Running for 5 steps
TCL: Running for 5 steps
TCL: Running for 5 steps
TCL: Running for 5 steps
TCL: Running for 5 steps
TCL: Running for 5 steps
TCL: Running for 5 steps
TCL: Running for 5 steps
TCL: Running for 5 steps
TCL: Running for 5 steps
TCL: Running for 5 steps
TCL: Running for 5 steps
TCL: Running for 5 steps
ETITLE: TS BOND ANGLE DIHED IMPRP ELECT VDW BOUNDARY MISC KINETIC TOTAL TEMP POTENTIAL TOTAL3 TEMPAVG PRESSURE GPRESSURE VOLUME PRESSAVG GPRESSAVG
ENERGY: 2000 15720.2348 10032.5455 1951.7244 110.2674 -196642.5059 18094.1503 0.0000 -286.8171 43180.3863 -107840.0143 299.6678 -151020.4006 -107689.2335 300.5564 -1041.2479 -892.0460 474748.4077 -846.5919 -851.4276
TCL: Running for 5 steps
