Info: SIMULATION PARAMETERS:
Info: TIMESTEP               0.5
Info: NUMBER OF STEPS        0
Info: STEPS PER CYCLE        1
Info: PERIODIC CELL BASIS 1  78.0108 0 0
Info: PERIODIC CELL BASIS 2  0 78.0108 0
Info: PERIODIC CELL BASIS 3  0 0 78.0108
Info: PERIODIC CELL CENTER   0 0 0
Info: FIRST LDB TIMESTEP     1
Info: LAST LDB TIMESTEP     -1
Info: HOM BACKGROUND SCALING 1
Info: PME BACKGROUND SCALING 1
Info: MIN ATOMS PER PATCH    40
Info: INITIAL TEMPERATURE    300
Info: CENTER OF MASS MOVING INITIALLY? NO
Info: DIELECTRIC             1
Info: EXCLUDE                SCALED ONE-FOUR
Info: 1-4 ELECTROSTATICS SCALED BY 1
Info: MODIFIED 1-4 VDW PARAMETERS WILL BE USED
Info: NO DCD TRAJECTORY OUTPUT
Info: NO EXTENDED SYSTEM TRAJECTORY OUTPUT
Info: NO VELOCITY DCD OUTPUT
Info: NO FORCE DCD OUTPUT
Info: OUTPUT FILENAME        ./output/7/decarb.job0000
Info: BINARY OUTPUT FILES WILL BE USED
Info: RESTART FILENAME       ./output/7/decarb.job0000.restart
Info: RESTART FREQUENCY      100
Info: BINARY RESTART FILES WILL BE USED
Info: SWITCHING ACTIVE
Info: SWITCHING ON           12
Info: SWITCHING OFF          14
Info: PAIRLIST DISTANCE      15
Info: PAIRLIST SHRINK RATE   0.01
Info: PAIRLIST GROW RATE     0.01
Info: PAIRLIST TRIGGER       0.3
Info: PAIRLISTS PER CYCLE    2
Info: PAIRLISTS ENABLED
Info: MARGIN                 0
Info: HYDROGEN GROUP CUTOFF  2.5
Info: PATCH DIMENSION        17.5
Info: ENERGY OUTPUT STEPS    100
Info: CROSSTERM ENERGY INCLUDED IN DIHEDRAL
Info: TIMING OUTPUT STEPS    100
Info: QM FORCES ACTIVE
Info: QM SOFTWARE: mopac
Info: QM ATOM CHARGES FROM QM SOFTWARE: MULLIKEN
Info: QM EXECUTABLE PATH: /home/melomcr/Projects_melomcr/Programs/MOPAC_GPU/MOPAC2016.exe
Info: QM COLUMN: beta
Info: QM BOND COLUMN: occ
Info: QM WILL DETECT BONDS BETWEEN QM AND MM ATOMS.
Info: QM-MM BOND SCHEME: Charge Shift.
Info: QM Will use PSF charges.
Info: QM BASE DIRECTORY: /dev/shm/NAMD_SM_qmmm
Info: QM CONFIG LINE: PM7 XYZ T=2M 1SCF AUX LET GRAD QMMM THREADS=2
Info: QM CONFIG LINE: decarboxylase
Info: QM POINT CHARGES WILL BE SELECTED EVERY 1 STEPS.
Info: QM Point Charge Switching: ON.
Info: QM Point Charge SCHEME: none.
Info: QM executions per node: 1
Info: COLLECTIVE VARIABLES CALCULATION REQUESTED
Info: COLLECTIVE VARIABLES CONFIGURATION   ./setup/colvars_7.conf
Info: LANGEVIN DYNAMICS ACTIVE
Info: LANGEVIN TEMPERATURE   300
Info: LANGEVIN USING BBK INTEGRATOR
Info: LANGEVIN DAMPING COEFFICIENT IS 200 INVERSE PS
Info: LANGEVIN DYNAMICS APPLIED TO HYDROGENS
Info: PARTICLE MESH EWALD (PME) ACTIVE
Info: PME TOLERANCE               1e-05
Info: PME EWALD COEFFICIENT       0.192342
Info: PME INTERPOLATION ORDER     4
Info: PME GRID DIMENSIONS         80 80 80
Info: PME MAXIMUM GRID SPACING    1
Info: FULL ELECTROSTATIC EVALUATION FREQUENCY      1
Info: USING VERLET I (r-RESPA) MTS SCHEME.
Info: C1 SPLITTING OF LONG RANGE ELECTROSTATICS
Info: PLACING ATOMS IN PATCHES BY HYDROGEN GROUPS
Info: RANDOM NUMBER SEED     30304
Info: USE HYDROGEN BONDS?    NO
Info: COORDINATE PDB         decarboxylase.0.pdb
Info: STRUCTURE FILE         decarboxylase.0.psf
Info: PARAMETER file: CHARMM format!
Info: PARAMETERS             ./toppar/par_all36_prot.prm
Info: PARAMETERS             ./toppar/par_all36_cgenff.prm
Info: PARAMETERS             ./toppar/par_all36_na.prm
Info: PARAMETERS             ./toppar/par_all36_carb.prm
Info: PARAMETERS             ./toppar/par_all36_lipid.prm
Info: PARAMETERS             ./toppar/toppar_water_ions_namd.str
Info: PARAMETERS             ./toppar/ligand.str
Info: USING ARITHMETIC MEAN TO COMBINE L-J SIGMA PARAMETERS
Info: BINARY COORDINATES     ./setup/image_7.coor
Info: SKIPPING rtf SECTION IN STREAM FILE
Info: SKIPPING rtf SECTION IN STREAM FILE
Info: SUMMARY OF PARAMETERS:
Info: 912 BONDS
Info: 2656 ANGLES
Info: 6453 DIHEDRAL
Info: 190 IMPROPER
Info: 6 CROSSTERM
Info: 350 VDW
Info: 6 VDW_PAIRS
Info: 0 NBTHOLE_PAIRS
Info: Using the following PDB file for QM parameters: decarboxylase.0.pdb
Info: Number of QM atoms (excluding Dummy atoms): 35
Info: We found 2 QM-MM bonds.
Info: 1) Group ID: 1 ; Group size: 35 atoms ; Total PSF charge: -1
Info: MM-QM pair: 1005:1007 -> Value (distance or ratio): 1.09 (QM Group 0 ID 1)
Info: MM-QM pair: 3303:3304 -> Value (distance or ratio): 0.99 (QM Group 0 ID 1)
Info: STRUCTURE SUMMARY:
Info: 48341 ATOMS
Info: 33354 BONDS
Info: 21065 ANGLES
Info: 8802 DIHEDRALS
Info: 566 IMPROPERS
Info: 213 CROSSTERMS
Info: 0 EXCLUSIONS
Info: 145023 DEGREES OF FREEDOM
Info: 16669 HYDROGEN GROUPS
Info: 4 ATOMS IN LARGEST HYDROGEN GROUP
Info: 16669 MIGRATION GROUPS
Info: 4 ATOMS IN LARGEST MIGRATION GROUP
Info: TOTAL MASS = 294152 amu
Info: TOTAL CHARGE = 0.999003 e
Info: MASS DENSITY = 1.02889 g/cm^3
Info: ATOM DENSITY = 0.101824 atoms/A^3
Info: The QM region will remove 33 bonds, 52 angles, 61 dihedrals, 4 impropers and 0 crossterms.
Info: ADDED 63124 IMPLICIT EXCLUSIONS
Info: NONBONDED TABLE R-SQUARED SPACING: 0.0625
Info: NONBONDED TABLE SIZE: 769 POINTS
Info: REMOVING COM VELOCITY 0.0286786 0.0518631 0.0409334
TCL: Running for 5 steps
Info: List of ranks running QM simulations: 0.
ETITLE: TS BOND ANGLE DIHED IMPRP ELECT VDW BOUNDARY MISC KINETIC TOTAL TEMP POTENTIAL TOTAL3 TEMPAVG PRESSURE GPRESSURE VOLUME PRESSAVG GPRESSAVG
ENERGY: 0 650.1560 1930.3733 1951.5269 131.3407 -173318.7591 14650.9652 0.0000 -221.1147 43302.1142 -110923.3975 300.5125 -154225.5117 -110877.1276 300.5125 23171.0959 284.1507 474748.4077 23171.0959 284.1507
TCL: Writing to files with basename ./output/7/decarb.job0000.drift0000.iter0000.
TCL: Running for 5 steps
TCL: Writing to files with basename ./output/7/decarb.job0000.drift0001.iter0000.
TCL: Running for 5 steps
TCL: Writing to files with basename ./output/7/decarb.job0000.drift0002.iter0000.
TCL: Running for 5 steps
TCL: Writing to files with basename ./output/7/decarb.job0000.drift0003.iter0000.
TCL: Running for 5 steps
TCL: Writing to files with basename ./output/7/decarb.job0000.drift0004.iter0000.
TCL: Running for 5 steps
TCL: Running for 5 steps
TCL: Running for 5 steps
TCL: Running for 5 steps
TCL: Running for 5 steps
TCL: Running for 5 steps
TCL: Running for 5 steps
TCL: Running for 5 steps
TCL: Running for 5 steps
TCL: Running for 5 steps
TCL: Running for 5 steps
TCL: Running for 5 steps
TCL: Running for 5 steps
TCL: Running for 5 steps
TCL: Running for 5 steps
ETITLE: TS BOND ANGLE DIHED IMPRP ELECT VDW BOUNDARY MISC KINETIC TOTAL TEMP POTENTIAL TOTAL3 TEMPAVG PRESSURE GPRESSURE VOLUME PRESSAVG GPRESSAVG
ENERGY: 100 15336.2982 9641.8512 1940.7459 124.7705 -190922.4773 15241.8294 0.0000 -155.4862 42868.9674 -105923.5008 297.5065 -148792.4683 -105864.4405 296.2215 -1836.8782 -2034.0432 474748.4077 1345.2167 -1643.8605
TCL: Running for 5 steps
ETITLE: TS BOND ANGLE DIHED IMPRP ELECT VDW BOUNDARY MISC KINETIC TOTAL TEMP POTENTIAL TOTAL3 TEMPAVG PRESSURE GPRESSURE VOLUME PRESSAVG GPRESSAVG
ENERGY: 100 15336.2982 9641.8512 1940.7459 124.7705 -190922.4773 15241.8294 0.0000 -151.9724 42868.9674 -105919.9871 297.5065 -148788.9545 -105817.4208 297.5065 -1841.6374 -2037.6404 474748.4077 -1841.6374 -2037.6404
TCL: Running for 5 steps
TCL: Running for 5 steps
TCL: Running for 5 steps
TCL: Running for 5 steps
TCL: Running for 5 steps
TCL: Running for 5 steps
TCL: Running for 5 steps
TCL: Running for 5 steps
TCL: Running for 5 steps
TCL: Running for 5 steps
TCL: Running for 5 steps
TCL: Running for 5 steps
TCL: Running for 5 steps
TCL: Running for 5 steps
TCL: Running for 5 steps
TCL: Running for 5 steps
TCL: Running for 5 steps
TCL: Running for 5 steps
TCL: Running for 5 steps
ETITLE: TS BOND ANGLE DIHED IMPRP ELECT VDW BOUNDARY MISC KINETIC TOTAL TEMP POTENTIAL TOTAL3 TEMPAVG PRESSURE GPRESSURE VOLUME PRESSAVG GPRESSAVG
ENERGY: 200 15435.6247 9685.8808 1906.7840 121.6902 -191636.9605 15596.7854 0.0000 -112.7612 42999.5566 -106003.4001 298.4128 -149002.9568 -105996.0148 299.9406 -1901.5789 -1903.8836 474748.4077 -1956.4930 -1956.9166
TCL: Running for 5 steps
ETITLE: TS BOND ANGLE DIHED IMPRP ELECT VDW BOUNDARY MISC KINETIC TOTAL TEMP POTENTIAL TOTAL3 TEMPAVG PRESSURE GPRESSURE VOLUME PRESSAVG GPRESSAVG
ENERGY: 200 15435.6247 9685.8808 1906.7840 121.6902 -191636.9605 15596.7854 0.0000 -112.2059 42999.5566 -106002.8448 298.4128 -149002.4014 -105895.9013 298.4128 -1911.8726 -1908.7996 474748.4077 -1911.8726 -1908.7996
TCL: Running for 5 steps
TCL: Running for 5 steps
TCL: Running for 5 steps
TCL: Running for 5 steps
TCL: Writing to files with basename ./output/7/decarb.job0000.image0007.iter0000.
TCL: Running for 5 steps
TCL: Writing to files with basename ./output/7/decarb.job0000.drift0000.iter0001.
TCL: Running for 5 steps
TCL: Writing to files with basename ./output/7/decarb.job0000.drift0001.iter0001.
TCL: Running for 5 steps
TCL: Writing to files with basename ./output/7/decarb.job0000.drift0002.iter0001.
TCL: Running for 5 steps
TCL: Writing to files with basename ./output/7/decarb.job0000.drift0003.iter0001.
TCL: Running for 5 steps
TCL: Writing to files with basename ./output/7/decarb.job0000.drift0004.iter0001.
TCL: Running for 5 steps
TCL: Running for 5 steps
TCL: Running for 5 steps
TCL: Running for 5 steps
TCL: Running for 5 steps
TCL: Running for 5 steps
TCL: Running for 5 steps
TCL: Running for 5 steps
TCL: Running for 5 steps
TCL: Running for 5 steps
ETITLE: TS BOND ANGLE DIHED IMPRP ELECT VDW BOUNDARY MISC KINETIC TOTAL TEMP POTENTIAL TOTAL3 TEMPAVG PRESSURE GPRESSURE VOLUME PRESSAVG GPRESSAVG
ENERGY: 300 15276.8495 9775.7974 1927.0891 119.9931 -191849.7137 15493.5552 0.0000 -223.6113 43347.3953 -106132.6454 300.8268 -149480.0406 -106063.5243 300.0076 -1677.3240 -1911.2068 474748.4077 -1878.7261 -1876.4361
TCL: Running for 5 steps
ETITLE: TS BOND ANGLE DIHED IMPRP ELECT VDW BOUNDARY MISC KINETIC TOTAL TEMP POTENTIAL TOTAL3 TEMPAVG PRESSURE GPRESSURE VOLUME PRESSAVG GPRESSAVG
ENERGY: 300 15276.8495 9775.7974 1927.0891 119.9931 -191849.7137 15493.5552 0.0000 -223.4267 43347.3953 -106132.4607 300.8268 -149479.8560 -106033.3909 300.8268 -1680.3292 -1913.5222 474748.4077 -1680.3292 -1913.5222
TCL: Running for 5 steps
TCL: Running for 5 steps
TCL: Running for 5 steps
TCL: Running for 5 steps
TCL: Running for 5 steps
TCL: Running for 5 steps
TCL: Running for 5 steps
TCL: Running for 5 steps
TCL: Running for 5 steps
TCL: Running for 5 steps
TCL: Running for 5 steps
TCL: Running for 5 steps
TCL: Running for 5 steps
TCL: Running for 5 steps
TCL: Running for 5 steps
TCL: Running for 5 steps
TCL: Running for 5 steps
TCL: Running for 5 steps
TCL: Running for 5 steps
ETITLE: TS BOND ANGLE DIHED IMPRP ELECT VDW BOUNDARY MISC KINETIC TOTAL TEMP POTENTIAL TOTAL3 TEMPAVG PRESSURE GPRESSURE VOLUME PRESSAVG GPRESSAVG
ENERGY: 400 15360.7478 10019.2358 1908.6047 111.9997 -192155.0219 15687.5793 0.0000 -217.9801 43037.3163 -106247.5184 298.6749 -149284.8347 -106164.6644 299.8826 -1712.3564 -1866.2164 474748.4077 -1890.6053 -1926.2147
TCL: Running for 5 steps
ETITLE: TS BOND ANGLE DIHED IMPRP ELECT VDW BOUNDARY MISC KINETIC TOTAL TEMP POTENTIAL TOTAL3 TEMPAVG PRESSURE GPRESSURE VOLUME PRESSAVG GPRESSAVG
ENERGY: 400 15360.7478 10019.2358 1908.6047 111.9997 -192155.0219 15687.5793 0.0000 -217.3943 43037.3163 -106246.9327 298.6749 -149284.2490 -106146.7760 298.6749 -1714.8186 -1867.2544 474748.4077 -1714.8186 -1867.2544
TCL: Running for 5 steps
TCL: Running for 5 steps
TCL: Running for 5 steps
TCL: Running for 5 steps
TCL: Running for 5 steps
TCL: Running for 5 steps
TCL: Running for 5 steps
TCL: Running for 5 steps
TCL: Running for 5 steps
TCL: Writing to files with basename ./output/7/decarb.job0000.image0007.iter0001.
TCL: Running for 5 steps
TCL: Writing to files with basename ./output/7/decarb.job0000.drift0000.iter0002.
TCL: Running for 5 steps
TCL: Writing to files with basename ./output/7/decarb.job0000.drift0001.iter0002.
TCL: Running for 5 steps
TCL: Writing to files with basename ./output/7/decarb.job0000.drift0002.iter0002.
TCL: Running for 5 steps
TCL: Writing to files with basename ./output/7/decarb.job0000.drift0003.iter0002.
TCL: Running for 5 steps
TCL: Writing to files with basename ./output/7/decarb.job0000.drift0004.iter0002.
TCL: Running for 5 steps
TCL: Running for 5 steps
TCL: Running for 5 steps
TCL: Running for 5 steps
TCL: Running for 5 steps
ETITLE: TS BOND ANGLE DIHED IMPRP ELECT VDW BOUNDARY MISC KINETIC TOTAL TEMP POTENTIAL TOTAL3 TEMPAVG PRESSURE GPRESSURE VOLUME PRESSAVG GPRESSAVG
ENERGY: 500 15337.1705 9825.4669 1930.3483 129.9581 -192536.8144 15886.2325 0.0000 -223.9216 43361.6371 -106289.9226 300.9256 -149651.5597 -106117.2754 299.9931 -1856.9202 -1820.8950 474748.4077 -1820.0811 -1843.7439
TCL: Running for 5 steps
ETITLE: TS BOND ANGLE DIHED IMPRP ELECT VDW BOUNDARY MISC KINETIC TOTAL TEMP POTENTIAL TOTAL3 TEMPAVG PRESSURE GPRESSURE VOLUME PRESSAVG GPRESSAVG
ENERGY: 500 15337.1705 9825.4669 1930.3483 129.9581 -192536.8144 15886.2325 0.0000 -223.9200 43361.6371 -106289.9211 300.9256 -149651.5582 -106190.8823 300.9256 -1849.7380 -1817.1464 474748.4077 -1849.7380 -1817.1464
TCL: Running for 5 steps
TCL: Running for 5 steps
TCL: Running for 5 steps
TCL: Running for 5 steps
TCL: Running for 5 steps
TCL: Running for 5 steps
TCL: Running for 5 steps
TCL: Running for 5 steps
TCL: Running for 5 steps
TCL: Running for 5 steps
TCL: Running for 5 steps
TCL: Running for 5 steps
TCL: Running for 5 steps
TCL: Running for 5 steps
TCL: Running for 5 steps
TCL: Running for 5 steps
TCL: Running for 5 steps
TCL: Running for 5 steps
TCL: Running for 5 steps
ETITLE: TS BOND ANGLE DIHED IMPRP ELECT VDW BOUNDARY MISC KINETIC TOTAL TEMP POTENTIAL TOTAL3 TEMPAVG PRESSURE GPRESSURE VOLUME PRESSAVG GPRESSAVG
ENERGY: 600 15571.1900 9826.7539 1941.3410 114.8949 -192716.0836 15979.3794 0.0000 -80.4280 42981.8586 -106381.0938 298.2900 -149362.9524 -106303.7327 299.9094 -2133.6824 -1899.3159 474748.4077 -1758.7943 -1776.4510
TCL: Running for 5 steps
ETITLE: TS BOND ANGLE DIHED IMPRP ELECT VDW BOUNDARY MISC KINETIC TOTAL TEMP POTENTIAL TOTAL3 TEMPAVG PRESSURE GPRESSURE VOLUME PRESSAVG GPRESSAVG
ENERGY: 600 15571.1900 9826.7539 1941.3410 114.8949 -192716.0836 15979.3794 0.0000 -80.1056 42981.8586 -106380.7714 298.2900 -149362.6300 -106278.7681 298.2900 -2136.7216 -1901.1457 474748.4077 -2136.7216 -1901.1457
TCL: Running for 5 steps
TCL: Running for 5 steps
TCL: Running for 5 steps
TCL: Running for 5 steps
TCL: Running for 5 steps
TCL: Running for 5 steps
TCL: Running for 5 steps
TCL: Running for 5 steps
TCL: Running for 5 steps
TCL: Running for 5 steps
TCL: Running for 5 steps
TCL: Running for 5 steps
TCL: Running for 5 steps
TCL: Running for 5 steps
TCL: Writing to files with basename ./output/7/decarb.job0000.image0007.iter0002.
TCL: Running for 5 steps
TCL: Writing to files with basename ./output/7/decarb.job0000.drift0000.iter0003.
TCL: Running for 5 steps
TCL: Writing to files with basename ./output/7/decarb.job0000.drift0001.iter0003.
TCL: Running for 5 steps
TCL: Writing to files with basename ./output/7/decarb.job0000.drift0002.iter0003.
TCL: Running for 5 steps
TCL: Writing to files with basename ./output/7/decarb.job0000.drift0003.iter0003.
TCL: Running for 5 steps
ETITLE: TS BOND ANGLE DIHED IMPRP ELECT VDW BOUNDARY MISC KINETIC TOTAL TEMP POTENTIAL TOTAL3 TEMPAVG PRESSURE GPRESSURE VOLUME PRESSAVG GPRESSAVG
ENERGY: 700 15402.7356 10051.5561 1945.4015 120.5322 -192895.3079 16129.4851 0.0000 -34.6451 43283.9559 -105996.2867 300.3865 -149280.2426 -105867.5239 299.7003 -1815.5761 -1632.8419 474748.4077 -1736.8762 -1722.9009
TCL: Writing to files with basename ./output/7/decarb.job0000.drift0004.iter0003.
TCL: Running for 5 steps
ETITLE: TS BOND ANGLE DIHED IMPRP ELECT VDW BOUNDARY MISC KINETIC TOTAL TEMP POTENTIAL TOTAL3 TEMPAVG PRESSURE GPRESSURE VOLUME PRESSAVG GPRESSAVG
ENERGY: 700 15402.7356 10051.5561 1945.4015 120.5322 -192895.3079 16129.4851 0.0000 -34.6435 43283.9559 -105996.2850 300.3865 -149280.2410 -105899.0731 300.3865 -1812.4977 -1631.4666 474748.4077 -1812.4977 -1631.4666
TCL: Running for 5 steps
TCL: Running for 5 steps
TCL: Running for 5 steps
TCL: Running for 5 steps
TCL: Running for 5 steps
TCL: Running for 5 steps
TCL: Running for 5 steps
TCL: Running for 5 steps
TCL: Running for 5 steps
TCL: Running for 5 steps
TCL: Running for 5 steps
TCL: Running for 5 steps
TCL: Running for 5 steps
TCL: Running for 5 steps
TCL: Running for 5 steps
TCL: Running for 5 steps
TCL: Running for 5 steps
TCL: Running for 5 steps
TCL: Running for 5 steps
ETITLE: TS BOND ANGLE DIHED IMPRP ELECT VDW BOUNDARY MISC KINETIC TOTAL TEMP POTENTIAL TOTAL3 TEMPAVG PRESSURE GPRESSURE VOLUME PRESSAVG GPRESSAVG
ENERGY: 800 15386.7939 9934.6829 1954.1439 117.5267 -192830.0410 16188.3711 0.0000 -103.7920 43361.2658 -105991.0487 300.9230 -149352.3145 -105909.6337 300.3583 -1194.1348 -1645.1162 474748.4077 -1618.1830 -1631.3934
TCL: Running for 5 steps
ETITLE: TS BOND ANGLE DIHED IMPRP ELECT VDW BOUNDARY MISC KINETIC TOTAL TEMP POTENTIAL TOTAL3 TEMPAVG PRESSURE GPRESSURE VOLUME PRESSAVG GPRESSAVG
ENERGY: 800 15386.7939 9934.6829 1954.1439 117.5267 -192830.0410 16188.3711 0.0000 -103.3783 43361.2658 -105990.6350 300.9230 -149351.9008 -105897.0586 300.9230 -1195.9243 -1645.9688 474748.4077 -1195.9243 -1645.9688
TCL: Running for 5 steps
TCL: Running for 5 steps
TCL: Running for 5 steps
TCL: Running for 5 steps
TCL: Running for 5 steps
TCL: Running for 5 steps
TCL: Running for 5 steps
TCL: Running for 5 steps
TCL: Running for 5 steps
TCL: Running for 5 steps
TCL: Running for 5 steps
TCL: Running for 5 steps
TCL: Running for 5 steps
TCL: Running for 5 steps
TCL: Running for 5 steps
TCL: Running for 5 steps
TCL: Running for 5 steps
TCL: Running for 5 steps
TCL: Running for 5 steps
ETITLE: TS BOND ANGLE DIHED IMPRP ELECT VDW BOUNDARY MISC KINETIC TOTAL TEMP POTENTIAL TOTAL3 TEMPAVG PRESSURE GPRESSURE VOLUME PRESSAVG GPRESSAVG
ENERGY: 900 15585.7152 10033.8230 1926.1332 128.7764 -193506.6188 16290.6262 0.0000 -151.3116 42922.2742 -106770.5821 297.8765 -149692.8563 -106651.1923 299.3920 -1829.1991 -1654.5182 474748.4077 -1661.8595 -1647.4193
TCL: Writing to files with basename ./output/7/decarb.job0000.image0007.iter0003.
TCL: Running for 5 steps
ETITLE: TS BOND ANGLE DIHED IMPRP ELECT VDW BOUNDARY MISC KINETIC TOTAL TEMP POTENTIAL TOTAL3 TEMPAVG PRESSURE GPRESSURE VOLUME PRESSAVG GPRESSAVG
ENERGY: 900 15585.7152 10033.8230 1926.1332 128.7764 -193506.6188 16290.6262 0.0000 -152.5605 42922.2742 -106771.8311 297.8765 -149694.1052 -106669.5559 297.8765 -1829.4388 -1658.2388 474748.4077 -1829.4388 -1658.2388
TCL: Writing to files with basename ./output/7/decarb.job0000.drift0000.iter0004.
TCL: Running for 5 steps
TCL: Writing to files with basename ./output/7/decarb.job0000.drift0001.iter0004.
TCL: Running for 5 steps
TCL: Writing to files with basename ./output/7/decarb.job0000.drift0002.iter0004.
TCL: Running for 5 steps
TCL: Writing to files with basename ./output/7/decarb.job0000.drift0003.iter0004.
TCL: Running for 5 steps
TCL: Writing to files with basename ./output/7/decarb.job0000.drift0004.iter0004.
TCL: Running for 5 steps
TCL: Running for 5 steps
TCL: Running for 5 steps
TCL: Running for 5 steps
TCL: Running for 5 steps
TCL: Running for 5 steps
TCL: Running for 5 steps
TCL: Running for 5 steps
TCL: Running for 5 steps
TCL: Running for 5 steps
TCL: Running for 5 steps
TCL: Running for 5 steps
TCL: Running for 5 steps
TCL: Running for 5 steps
TCL: Running for 5 steps
ETITLE: TS BOND ANGLE DIHED IMPRP ELECT VDW BOUNDARY MISC KINETIC TOTAL TEMP POTENTIAL TOTAL3 TEMPAVG PRESSURE GPRESSURE VOLUME PRESSAVG GPRESSAVG
ENERGY: 1000 15592.5835 9857.3625 1921.6927 123.8746 -193511.1342 16410.8198 0.0000 -135.5252 43322.9457 -106417.3804 300.6571 -149740.3262 -106319.5881 299.4684 -1746.4924 -1558.3114 474748.4077 -1582.5308 -1547.9989
TCL: Running for 5 steps
ETITLE: TS BOND ANGLE DIHED IMPRP ELECT VDW BOUNDARY MISC KINETIC TOTAL TEMP POTENTIAL TOTAL3 TEMPAVG PRESSURE GPRESSURE VOLUME PRESSAVG GPRESSAVG
ENERGY: 1000 15592.5835 9857.3625 1921.6927 123.8746 -193511.1342 16410.8198 0.0000 -135.2671 43322.9457 -106417.1224 300.6571 -149740.0681 -106321.3982 300.6571 -1746.4538 -1560.8740 474748.4077 -1746.4538 -1560.8740
TCL: Running for 5 steps
TCL: Running for 5 steps
TCL: Running for 5 steps
TCL: Running for 5 steps
TCL: Running for 5 steps
TCL: Running for 5 steps
TCL: Running for 5 steps
TCL: Running for 5 steps
TCL: Running for 5 steps
TCL: Running for 5 steps
TCL: Running for 5 steps
TCL: Running for 5 steps
TCL: Running for 5 steps
TCL: Running for 5 steps
TCL: Running for 5 steps
TCL: Running for 5 steps
TCL: Running for 5 steps
TCL: Running for 5 steps
TCL: Running for 5 steps
ETITLE: TS BOND ANGLE DIHED IMPRP ELECT VDW BOUNDARY MISC KINETIC TOTAL TEMP POTENTIAL TOTAL3 TEMPAVG PRESSURE GPRESSURE VOLUME PRESSAVG GPRESSAVG
ENERGY: 1100 15475.5392 10095.4142 1932.6275 119.8046 -193616.8460 16486.6551 0.0000 -141.9225 43165.7486 -106482.9793 299.5662 -149648.7279 -106398.0391 299.2614 -1684.0428 -1622.6498 474748.4077 -1628.5042 -1599.9973
TCL: Running for 5 steps
ETITLE: TS BOND ANGLE DIHED IMPRP ELECT VDW BOUNDARY MISC KINETIC TOTAL TEMP POTENTIAL TOTAL3 TEMPAVG PRESSURE GPRESSURE VOLUME PRESSAVG GPRESSAVG
ENERGY: 1100 15475.5392 10095.4142 1932.6275 119.8046 -193616.8460 16486.6551 0.0000 -141.4320 43165.7486 -106482.4888 299.5662 -149648.2374 -106391.9691 299.5662 -1686.4836 -1624.1881 474748.4077 -1686.4836 -1624.1881
TCL: Running for 5 steps
TCL: Running for 5 steps
TCL: Running for 5 steps
TCL: Running for 5 steps
TCL: Writing to files with basename ./output/7/decarb.job0000.image0007.iter0004.
TCL: Running for 5 steps
TCL: Writing to files with basename ./output/7/decarb.job0000.drift0000.iter0005.
TCL: Running for 5 steps
TCL: Writing to files with basename ./output/7/decarb.job0000.drift0001.iter0005.
TCL: Running for 5 steps
TCL: Writing to files with basename ./output/7/decarb.job0000.drift0002.iter0005.
TCL: Running for 5 steps
TCL: Writing to files with basename ./output/7/decarb.job0000.drift0003.iter0005.
TCL: Running for 5 steps
TCL: Writing to files with basename ./output/7/decarb.job0000.drift0004.iter0005.
TCL: Running for 5 steps
TCL: Running for 5 steps
TCL: Running for 5 steps
TCL: Running for 5 steps
TCL: Running for 5 steps
TCL: Running for 5 steps
TCL: Running for 5 steps
TCL: Running for 5 steps
TCL: Running for 5 steps
TCL: Running for 5 steps
ETITLE: TS BOND ANGLE DIHED IMPRP ELECT VDW BOUNDARY MISC KINETIC TOTAL TEMP POTENTIAL TOTAL3 TEMPAVG PRESSURE GPRESSURE VOLUME PRESSAVG GPRESSAVG
ENERGY: 1200 15559.9978 10180.6376 1933.3607 125.8452 -194149.4855 16681.8882 0.0000 -165.8460 43314.9825 -106518.6194 300.6018 -149833.6020 -106426.7643 300.3091 -1322.2388 -1479.7172 474748.4077 -1423.5509 -1465.0816
TCL: Running for 5 steps
ETITLE: TS BOND ANGLE DIHED IMPRP ELECT VDW BOUNDARY MISC KINETIC TOTAL TEMP POTENTIAL TOTAL3 TEMPAVG PRESSURE GPRESSURE VOLUME PRESSAVG GPRESSAVG
ENERGY: 1200 15559.9978 10180.6376 1933.3607 125.8452 -194149.4855 16681.8882 0.0000 -165.8141 43314.9825 -106518.5876 300.6018 -149833.5701 -106422.8885 300.6018 -1322.6853 -1478.4970 474748.4077 -1322.6853 -1478.4970
TCL: Running for 5 steps
TCL: Running for 5 steps
TCL: Running for 5 steps
TCL: Running for 5 steps
TCL: Running for 5 steps
TCL: Running for 5 steps
TCL: Running for 5 steps
TCL: Running for 5 steps
TCL: Running for 5 steps
TCL: Running for 5 steps
TCL: Running for 5 steps
TCL: Running for 5 steps
TCL: Running for 5 steps
TCL: Running for 5 steps
TCL: Running for 5 steps
TCL: Running for 5 steps
TCL: Running for 5 steps
TCL: Running for 5 steps
TCL: Running for 5 steps
ETITLE: TS BOND ANGLE DIHED IMPRP ELECT VDW BOUNDARY MISC KINETIC TOTAL TEMP POTENTIAL TOTAL3 TEMPAVG PRESSURE GPRESSURE VOLUME PRESSAVG GPRESSAVG
ENERGY: 1300 15568.1575 10071.5612 1917.1866 112.1820 -193874.3137 16854.8753 0.0000 -58.2261 43141.7140 -106266.8632 299.3994 -149408.5772 -106235.1010 300.3453 -1213.9140 -1261.5436 474748.4077 -1348.0849 -1385.3700
TCL: Running for 5 steps
ETITLE: TS BOND ANGLE DIHED IMPRP ELECT VDW BOUNDARY MISC KINETIC TOTAL TEMP POTENTIAL TOTAL3 TEMPAVG PRESSURE GPRESSURE VOLUME PRESSAVG GPRESSAVG
ENERGY: 1300 15568.1575 10071.5612 1917.1866 112.1820 -193874.3137 16854.8753 0.0000 -57.6994 43141.7140 -106266.3365 299.3994 -149408.0505 -106173.7010 299.3994 -1220.6889 -1263.0836 474748.4077 -1220.6889 -1263.0836
TCL: Running for 5 steps
TCL: Running for 5 steps
TCL: Running for 5 steps
TCL: Running for 5 steps
TCL: Running for 5 steps
TCL: Running for 5 steps
TCL: Running for 5 steps
TCL: Running for 5 steps
TCL: Running for 5 steps
TCL: Writing to files with basename ./output/7/decarb.job0000.image0007.iter0005.
TCL: Running for 5 steps
TCL: Writing to files with basename ./output/7/decarb.job0000.drift0000.iter0006.
TCL: Running for 5 steps
TCL: Writing to files with basename ./output/7/decarb.job0000.drift0001.iter0006.
TCL: Running for 5 steps
TCL: Writing to files with basename ./output/7/decarb.job0000.drift0002.iter0006.
TCL: Running for 5 steps
TCL: Writing to files with basename ./output/7/decarb.job0000.drift0003.iter0006.
TCL: Running for 5 steps
TCL: Writing to files with basename ./output/7/decarb.job0000.drift0004.iter0006.
TCL: Running for 5 steps
TCL: Running for 5 steps
TCL: Running for 5 steps
TCL: Running for 5 steps
TCL: Running for 5 steps
ETITLE: TS BOND ANGLE DIHED IMPRP ELECT VDW BOUNDARY MISC KINETIC TOTAL TEMP POTENTIAL TOTAL3 TEMPAVG PRESSURE GPRESSURE VOLUME PRESSAVG GPRESSAVG
ENERGY: 1400 15464.5224 9901.0169 1926.0554 106.9293 -193786.4603 16751.9391 0.0000 -0.8608 43045.6717 -106591.1863 298.7329 -149636.8580 -106551.6611 299.8671 -1228.3142 -1435.6420 474748.4077 -1448.5941 -1405.1130
TCL: Running for 5 steps
ETITLE: TS BOND ANGLE DIHED IMPRP ELECT VDW BOUNDARY MISC KINETIC TOTAL TEMP POTENTIAL TOTAL3 TEMPAVG PRESSURE GPRESSURE VOLUME PRESSAVG GPRESSAVG
ENERGY: 1400 15464.5224 9901.0169 1926.0554 106.9293 -193786.4603 16751.9391 0.0000 -0.8589 43045.6717 -106591.1844 298.7329 -149636.8561 -106483.8833 298.7329 -1234.9331 -1443.1354 474748.4077 -1234.9331 -1443.1354
TCL: Running for 5 steps
TCL: Running for 5 steps
TCL: Running for 5 steps
TCL: Running for 5 steps
TCL: Running for 5 steps
TCL: Running for 5 steps
TCL: Running for 5 steps
TCL: Running for 5 steps
TCL: Running for 5 steps
TCL: Running for 5 steps
TCL: Running for 5 steps
TCL: Running for 5 steps
TCL: Running for 5 steps
TCL: Running for 5 steps
TCL: Running for 5 steps
TCL: Running for 5 steps
TCL: Running for 5 steps
TCL: Running for 5 steps
TCL: Running for 5 steps
ETITLE: TS BOND ANGLE DIHED IMPRP ELECT VDW BOUNDARY MISC KINETIC TOTAL TEMP POTENTIAL TOTAL3 TEMPAVG PRESSURE GPRESSURE VOLUME PRESSAVG GPRESSAVG
ENERGY: 1500 15477.8916 10011.0292 1946.4853 113.8633 -194182.0510 16593.3575 0.0000 -74.0489 43111.4255 -107002.0475 299.1892 -150113.4730 -106896.2779 299.6467 -1357.6632 -1486.3492 474748.4077 -1385.8927 -1418.0934
TCL: Running for 5 steps
ETITLE: TS BOND ANGLE DIHED IMPRP ELECT VDW BOUNDARY MISC KINETIC TOTAL TEMP POTENTIAL TOTAL3 TEMPAVG PRESSURE GPRESSURE VOLUME PRESSAVG GPRESSAVG
ENERGY: 1500 15477.8916 10011.0292 1946.4853 113.8633 -194182.0510 16593.3575 0.0000 -73.3362 43111.4255 -107001.3348 299.1892 -150112.7603 -106896.4955 299.1892 -1358.9722 -1488.5925 474748.4077 -1358.9722 -1488.5925
TCL: Running for 5 steps
TCL: Running for 5 steps
TCL: Running for 5 steps
TCL: Running for 5 steps
TCL: Running for 5 steps
TCL: Running for 5 steps
TCL: Running for 5 steps
TCL: Running for 5 steps
TCL: Running for 5 steps
TCL: Running for 5 steps
TCL: Running for 5 steps
TCL: Running for 5 steps
TCL: Running for 5 steps
TCL: Running for 5 steps
TCL: Writing to files with basename ./output/7/decarb.job0000.image0007.iter0006.
TCL: Running for 5 steps
TCL: Writing to files with basename ./output/7/decarb.job0000.drift0000.iter0007.
TCL: Running for 5 steps
TCL: Writing to files with basename ./output/7/decarb.job0000.drift0001.iter0007.
TCL: Running for 5 steps
TCL: Writing to files with basename ./output/7/decarb.job0000.drift0002.iter0007.
TCL: Running for 5 steps
TCL: Writing to files with basename ./output/7/decarb.job0000.drift0003.iter0007.
TCL: Running for 5 steps
ETITLE: TS BOND ANGLE DIHED IMPRP ELECT VDW BOUNDARY MISC KINETIC TOTAL TEMP POTENTIAL TOTAL3 TEMPAVG PRESSURE GPRESSURE VOLUME PRESSAVG GPRESSAVG
ENERGY: 1600 15527.5504 9964.4666 1937.0706 120.3559 -193850.6825 16526.8075 0.0000 -64.5111 43166.1694 -106672.7732 299.5691 -149838.9426 -106630.3518 299.7303 -1627.7365 -1504.0099 474748.4077 -1608.9577 -1579.9969
TCL: Writing to files with basename ./output/7/decarb.job0000.drift0004.iter0007.
TCL: Running for 5 steps
ETITLE: TS BOND ANGLE DIHED IMPRP ELECT VDW BOUNDARY MISC KINETIC TOTAL TEMP POTENTIAL TOTAL3 TEMPAVG PRESSURE GPRESSURE VOLUME PRESSAVG GPRESSAVG
ENERGY: 1600 15527.5504 9964.4666 1937.0706 120.3559 -193850.6825 16526.8075 0.0000 -64.5096 43166.1694 -106672.7718 299.5691 -149838.9411 -106577.4108 299.5691 -1632.9037 -1509.3730 474748.4077 -1632.9037 -1509.3730
TCL: Running for 5 steps
TCL: Running for 5 steps
TCL: Running for 5 steps
TCL: Running for 5 steps
TCL: Running for 5 steps
TCL: Running for 5 steps
TCL: Running for 5 steps
TCL: Running for 5 steps
TCL: Running for 5 steps
TCL: Running for 5 steps
TCL: Running for 5 steps
TCL: Running for 5 steps
TCL: Running for 5 steps
TCL: Running for 5 steps
TCL: Running for 5 steps
TCL: Running for 5 steps
TCL: Running for 5 steps
TCL: Running for 5 steps
TCL: Running for 5 steps
ETITLE: TS BOND ANGLE DIHED IMPRP ELECT VDW BOUNDARY MISC KINETIC TOTAL TEMP POTENTIAL TOTAL3 TEMPAVG PRESSURE GPRESSURE VOLUME PRESSAVG GPRESSAVG
ENERGY: 1700 15520.4715 9986.1725 1950.0200 108.7362 -194034.7183 16650.7132 0.0000 -73.8635 43151.3355 -106741.1329 299.4662 -149892.4684 -106618.3707 300.0637 -1454.9647 -1358.0058 474748.4077 -1430.7450 -1500.0853
TCL: Running for 5 steps
ETITLE: TS BOND ANGLE DIHED IMPRP ELECT VDW BOUNDARY MISC KINETIC TOTAL TEMP POTENTIAL TOTAL3 TEMPAVG PRESSURE GPRESSURE VOLUME PRESSAVG GPRESSAVG
ENERGY: 1700 15520.4715 9986.1725 1950.0200 108.7362 -194034.7183 16650.7132 0.0000 -73.7478 43151.3355 -106741.0172 299.4662 -149892.3527 -106647.6372 299.4662 -1452.4524 -1360.4798 474748.4077 -1452.4524 -1360.4798
TCL: Running for 5 steps
TCL: Running for 5 steps
TCL: Running for 5 steps
TCL: Running for 5 steps
TCL: Running for 5 steps
TCL: Running for 5 steps
TCL: Running for 5 steps
TCL: Running for 5 steps
TCL: Running for 5 steps
TCL: Running for 5 steps
TCL: Running for 5 steps
TCL: Running for 5 steps
TCL: Running for 5 steps
TCL: Running for 5 steps
TCL: Running for 5 steps
TCL: Running for 5 steps
TCL: Running for 5 steps
TCL: Running for 5 steps
TCL: Running for 5 steps
ETITLE: TS BOND ANGLE DIHED IMPRP ELECT VDW BOUNDARY MISC KINETIC TOTAL TEMP POTENTIAL TOTAL3 TEMPAVG PRESSURE GPRESSURE VOLUME PRESSAVG GPRESSAVG
ENERGY: 1800 15716.9931 9994.0380 1926.9167 110.9668 -194137.5689 16593.1576 0.0000 -117.6818 43227.1523 -106686.0262 299.9923 -149913.1785 -106545.4791 300.6026 -1757.3456 -1495.9634 474748.4077 -1433.3374 -1444.5265
TCL: Writing to files with basename ./output/7/decarb.job0000.image0007.iter0007.
TCL: Running for 5 steps
ETITLE: TS BOND ANGLE DIHED IMPRP ELECT VDW BOUNDARY MISC KINETIC TOTAL TEMP POTENTIAL TOTAL3 TEMPAVG PRESSURE GPRESSURE VOLUME PRESSAVG GPRESSAVG
ENERGY: 1800 15716.9931 9994.0380 1926.9167 110.9668 -194137.5689 16593.1576 0.0000 -119.2059 43227.1523 -106687.5502 299.9923 -149914.7025 -106598.0392 299.9923 -1740.3855 -1483.0862 474748.4077 -1740.3855 -1483.0862
TCL: Writing to files with basename ./output/7/decarb.job0000.drift0000.iter0008.
TCL: Running for 5 steps
TCL: Writing to files with basename ./output/7/decarb.job0000.drift0001.iter0008.
TCL: Running for 5 steps
TCL: Writing to files with basename ./output/7/decarb.job0000.drift0002.iter0008.
TCL: Running for 5 steps
TCL: Writing to files with basename ./output/7/decarb.job0000.drift0003.iter0008.
TCL: Running for 5 steps
TCL: Writing to files with basename ./output/7/decarb.job0000.drift0004.iter0008.
TCL: Running for 5 steps
TCL: Running for 5 steps
TCL: Running for 5 steps
TCL: Running for 5 steps
TCL: Running for 5 steps
TCL: Running for 5 steps
TCL: Running for 5 steps
TCL: Running for 5 steps
TCL: Running for 5 steps
TCL: Running for 5 steps
TCL: Running for 5 steps
TCL: Running for 5 steps
TCL: Running for 5 steps
TCL: Running for 5 steps
TCL: Running for 5 steps
ETITLE: TS BOND ANGLE DIHED IMPRP ELECT VDW BOUNDARY MISC KINETIC TOTAL TEMP POTENTIAL TOTAL3 TEMPAVG PRESSURE GPRESSURE VOLUME PRESSAVG GPRESSAVG
ENERGY: 1900 15557.6371 10117.1156 1943.1932 112.1883 -194361.2149 16905.8748 0.0000 -216.5275 43030.9072 -106910.8262 298.6304 -149941.7334 -106852.6982 300.4130 -1483.4138 -1412.4100 474748.4077 -1416.6421 -1404.3489
TCL: Running for 5 steps
ETITLE: TS BOND ANGLE DIHED IMPRP ELECT VDW BOUNDARY MISC KINETIC TOTAL TEMP POTENTIAL TOTAL3 TEMPAVG PRESSURE GPRESSURE VOLUME PRESSAVG GPRESSAVG
ENERGY: 1900 15557.6371 10117.1156 1943.1932 112.1883 -194361.2149 16905.8748 0.0000 -216.5082 43030.9072 -106910.8069 298.6304 -149941.7141 -106812.4770 298.6304 -1487.3377 -1410.3036 474748.4077 -1487.3377 -1410.3036
TCL: Running for 5 steps
TCL: Running for 5 steps
TCL: Running for 5 steps
TCL: Running for 5 steps
TCL: Running for 5 steps
TCL: Running for 5 steps
TCL: Running for 5 steps
TCL: Running for 5 steps
TCL: Running for 5 steps
TCL: Running for 5 steps
TCL: Running for 5 steps
TCL: Running for 5 steps
TCL: Running for 5 steps
TCL: Running for 5 steps
TCL: Running for 5 steps
TCL: Running for 5 steps
TCL: Running for 5 steps
TCL: Running for 5 steps
TCL: Running for 5 steps
ETITLE: TS BOND ANGLE DIHED IMPRP ELECT VDW BOUNDARY MISC KINETIC TOTAL TEMP POTENTIAL TOTAL3 TEMPAVG PRESSURE GPRESSURE VOLUME PRESSAVG GPRESSAVG
ENERGY: 2000 15497.2405 10070.1274 1936.0796 114.8087 -194028.4307 16794.5231 0.0000 -138.8022 43230.0594 -106524.3943 300.0125 -149754.4537 -106450.9867 300.4463 -1270.6544 -1391.9566 474748.4077 -1366.6622 -1397.2413
TCL: Running for 5 steps
