Info: SIMULATION PARAMETERS:
Info: TIMESTEP               0.5
Info: NUMBER OF STEPS        0
Info: STEPS PER CYCLE        1
Info: PERIODIC CELL BASIS 1  77.9134 0 0
Info: PERIODIC CELL BASIS 2  0 77.9134 0
Info: PERIODIC CELL BASIS 3  0 0 77.9134
Info: PERIODIC CELL CENTER   0 0 0
Info: FIRST LDB TIMESTEP     1
Info: LAST LDB TIMESTEP     -1
Info: HOM BACKGROUND SCALING 1
Info: PME BACKGROUND SCALING 1
Info: MIN ATOMS PER PATCH    40
Info: INITIAL TEMPERATURE    300
Info: CENTER OF MASS MOVING INITIALLY? NO
Info: DIELECTRIC             1
Info: EXCLUDE                SCALED ONE-FOUR
Info: 1-4 ELECTROSTATICS SCALED BY 1
Info: MODIFIED 1-4 VDW PARAMETERS WILL BE USED
Info: NO DCD TRAJECTORY OUTPUT
Info: NO EXTENDED SYSTEM TRAJECTORY OUTPUT
Info: NO VELOCITY DCD OUTPUT
Info: NO FORCE DCD OUTPUT
Info: OUTPUT FILENAME        ./output_eABF/12/decarb.job0000
Info: BINARY OUTPUT FILES WILL BE USED
Info: RESTART FILENAME       ./output_eABF/12/decarb.job0000.restart
Info: RESTART FREQUENCY      100
Info: BINARY RESTART FILES WILL BE USED
Info: SWITCHING ACTIVE
Info: SWITCHING ON           12
Info: SWITCHING OFF          14
Info: PAIRLIST DISTANCE      15
Info: PAIRLIST SHRINK RATE   0.01
Info: PAIRLIST GROW RATE     0.01
Info: PAIRLIST TRIGGER       0.3
Info: PAIRLISTS PER CYCLE    2
Info: PAIRLISTS ENABLED
Info: MARGIN                 0
Info: HYDROGEN GROUP CUTOFF  2.5
Info: PATCH DIMENSION        17.5
Info: ENERGY OUTPUT STEPS    20
Info: CROSSTERM ENERGY INCLUDED IN DIHEDRAL
Info: TIMING OUTPUT STEPS    5
Info: QM FORCES ACTIVE
Info: QM SOFTWARE: mopac
Info: QM ATOM CHARGES FROM QM SOFTWARE: MULLIKEN
Info: QM EXECUTABLE PATH: /home/melomcr/Projects_melomcr/Programs/MOPAC_GPU/MOPAC2016.exe
Info: QM COLUMN: beta
Info: QM BOND COLUMN: occ
Info: QM WILL DETECT BONDS BETWEEN QM AND MM ATOMS.
Info: QM-MM BOND SCHEME: Charge Shift.
Info: QM Will use PSF charges.
Info: QM BASE DIRECTORY: /dev/shm/NAMD_SM_qmmm
Info: QM CONFIG LINE: PM7 XYZ T=2M 1SCF AUX LET GRAD QMMM THREADS=2
Info: QM CONFIG LINE: decarboxylase
Info: QM POINT CHARGES WILL BE SELECTED EVERY 1 STEPS.
Info: QM Point Charge Switching: ON.
Info: QM Point Charge SCHEME: none.
Info: QM executions per node: 1
Info: COLLECTIVE VARIABLES CALCULATION REQUESTED
Info: COLLECTIVE VARIABLES CONFIGURATION   ./setup/pathCV.conf_eABF_tmp
Info: LANGEVIN DYNAMICS ACTIVE
Info: LANGEVIN TEMPERATURE   300
Info: LANGEVIN USING BBK INTEGRATOR
Info: LANGEVIN DAMPING COEFFICIENT IS 200 INVERSE PS
Info: LANGEVIN DYNAMICS APPLIED TO HYDROGENS
Info: PARTICLE MESH EWALD (PME) ACTIVE
Info: PME TOLERANCE               1e-05
Info: PME EWALD COEFFICIENT       0.192342
Info: PME INTERPOLATION ORDER     4
Info: PME GRID DIMENSIONS         80 80 80
Info: PME MAXIMUM GRID SPACING    1
Info: FULL ELECTROSTATIC EVALUATION FREQUENCY      1
Info: USING VERLET I (r-RESPA) MTS SCHEME.
Info: C1 SPLITTING OF LONG RANGE ELECTROSTATICS
Info: PLACING ATOMS IN PATCHES BY HYDROGEN GROUPS
Info: RANDOM NUMBER SEED     17493
Info: USE HYDROGEN BONDS?    NO
Info: COORDINATE PDB         decarboxylase.0.pdb
Info: STRUCTURE FILE         decarboxylase.0.psf
Info: PARAMETER file: CHARMM format!
Info: PARAMETERS             ./toppar/par_all36_prot.prm
Info: PARAMETERS             ./toppar/par_all36_cgenff.prm
Info: PARAMETERS             ./toppar/par_all36_na.prm
Info: PARAMETERS             ./toppar/par_all36_carb.prm
Info: PARAMETERS             ./toppar/par_all36_lipid.prm
Info: PARAMETERS             ./toppar/toppar_water_ions_namd.str
Info: PARAMETERS             ./toppar/ligand.str
Info: USING ARITHMETIC MEAN TO COMBINE L-J SIGMA PARAMETERS
Info: BINARY COORDINATES     ./string/string_12.coor
Info: SKIPPING rtf SECTION IN STREAM FILE
Info: SKIPPING rtf SECTION IN STREAM FILE
Info: SUMMARY OF PARAMETERS:
Info: 912 BONDS
Info: 2656 ANGLES
Info: 6453 DIHEDRAL
Info: 190 IMPROPER
Info: 6 CROSSTERM
Info: 350 VDW
Info: 6 VDW_PAIRS
Info: 0 NBTHOLE_PAIRS
Info: Using the following PDB file for QM parameters: decarboxylase.0.pdb
Info: Number of QM atoms (excluding Dummy atoms): 35
Info: We found 3 QM-MM bonds.
Info: 1) Group ID: 1 ; Group size: 35 atoms ; Total PSF charge: -1
Info: MM-QM pair: 973:975 -> Value (distance or ratio): 1.09 (QM Group 0 ID 1)
Info: MM-QM pair: 1005:1007 -> Value (distance or ratio): 1.09 (QM Group 0 ID 1)
Info: MM-QM pair: 3293:3294 -> Value (distance or ratio): 0.99 (QM Group 0 ID 1)
Info: STRUCTURE SUMMARY:
Info: 48323 ATOMS
Info: 33339 BONDS
Info: 21050 ANGLES
Info: 8790 DIHEDRALS
Info: 563 IMPROPERS
Info: 213 CROSSTERMS
Info: 0 EXCLUSIONS
Info: 144969 DEGREES OF FREEDOM
Info: 16663 HYDROGEN GROUPS
Info: 4 ATOMS IN LARGEST HYDROGEN GROUP
Info: 16663 MIGRATION GROUPS
Info: 4 ATOMS IN LARGEST MIGRATION GROUP
Info: TOTAL MASS = 294061 amu
Info: TOTAL CHARGE = 1 e
Info: MASS DENSITY = 1.03243 g/cm^3
Info: ATOM DENSITY = 0.102169 atoms/A^3
Info: The QM region will remove 33 bonds, 52 angles, 61 dihedrals, 4 impropers and 0 crossterms.
Info: ADDED 63077 IMPLICIT EXCLUSIONS
Info: NONBONDED TABLE R-SQUARED SPACING: 0.0625
Info: NONBONDED TABLE SIZE: 769 POINTS
Info: REMOVING COM VELOCITY 0.0132801 -0.00179945 -0.0302232
TCL: Running for 10000 steps
Info: List of ranks running QM simulations: 0.
ETITLE: TS BOND ANGLE DIHED IMPRP ELECT VDW BOUNDARY MISC KINETIC TOTAL TEMP POTENTIAL TOTAL3 TEMPAVG PRESSURE GPRESSURE VOLUME PRESSAVG GPRESSAVG
ENERGY: 0 15581.9243 10207.2469 1924.3341 111.1606 -197287.7066 18451.8465 0.0000 59.7799 43251.9561 -107699.4583 300.2763 -150951.4143 -107605.2889 300.2763 -673.0931 -796.8517 472972.7199 -673.0931 -796.8517
ENERGY: 2000 15796.4668 10142.8264 1925.4533 107.5778 -197249.3170 18584.0236 0.0000 -117.6683 43318.7904 -107491.8469 300.7403 -150810.6373 -107320.1076 300.9273 -823.7454 -699.2826 472972.7199 -875.0942 -753.7143
ENERGY: 4000 15663.5794 10212.2147 1919.1561 105.1897 -197796.1095 18807.2526 0.0000 39.6073 42933.4980 -108115.6115 298.0654 -151049.1096 -108015.7639 299.2300 -940.7194 -680.0820 472972.7199 -710.5591 -709.8985
ENERGY: 6000 15706.3538 10283.5870 1942.7472 106.8277 -198325.5875 18821.4225 0.0000 27.6490 43342.9985 -108094.0018 300.9083 -151437.0003 -107967.3543 300.6853 -860.9885 -631.5636 472972.7199 -728.8477 -682.1058
ENERGY: 8000 15588.9948 10396.4294 1905.7495 117.4512 -198448.4440 18863.5683 0.0000 -26.6607 43173.4791 -108429.4323 299.7314 -151602.9114 -108431.8484 299.0378 -756.3641 -626.5767 472972.7199 -579.8056 -646.5763
ENERGY: 10000 15713.6231 10158.1607 1907.7043 120.8893 -197718.6884 18707.8149 0.0000 -63.5432 43404.4611 -107769.5783 301.3350 -151174.0394 -107628.3144 300.0328 -879.8242 -657.9030 472972.7199 -647.0605 -671.5768
TCL: Writing to files with basename ./output_eABF/12/decarb.job0000.image0012.iter0000.
