Info: SIMULATION PARAMETERS:
Info: TIMESTEP               0.5
Info: NUMBER OF STEPS        0
Info: STEPS PER CYCLE        1
Info: PERIODIC CELL BASIS 1  77.9134 0 0
Info: PERIODIC CELL BASIS 2  0 77.9134 0
Info: PERIODIC CELL BASIS 3  0 0 77.9134
Info: PERIODIC CELL CENTER   0 0 0
Info: FIRST LDB TIMESTEP     1
Info: LAST LDB TIMESTEP     -1
Info: HOM BACKGROUND SCALING 1
Info: PME BACKGROUND SCALING 1
Info: MIN ATOMS PER PATCH    40
Info: INITIAL TEMPERATURE    300
Info: CENTER OF MASS MOVING INITIALLY? NO
Info: DIELECTRIC             1
Info: EXCLUDE                SCALED ONE-FOUR
Info: 1-4 ELECTROSTATICS SCALED BY 1
Info: MODIFIED 1-4 VDW PARAMETERS WILL BE USED
Info: NO DCD TRAJECTORY OUTPUT
Info: NO EXTENDED SYSTEM TRAJECTORY OUTPUT
Info: NO VELOCITY DCD OUTPUT
Info: NO FORCE DCD OUTPUT
Info: OUTPUT FILENAME        ./output/9/decarb.job0000
Info: BINARY OUTPUT FILES WILL BE USED
Info: RESTART FILENAME       ./output/9/decarb.job0000.restart
Info: RESTART FREQUENCY      100
Info: BINARY RESTART FILES WILL BE USED
Info: SWITCHING ACTIVE
Info: SWITCHING ON           12
Info: SWITCHING OFF          14
Info: PAIRLIST DISTANCE      15
Info: PAIRLIST SHRINK RATE   0.01
Info: PAIRLIST GROW RATE     0.01
Info: PAIRLIST TRIGGER       0.3
Info: PAIRLISTS PER CYCLE    2
Info: PAIRLISTS ENABLED
Info: MARGIN                 0
Info: HYDROGEN GROUP CUTOFF  2.5
Info: PATCH DIMENSION        17.5
Info: ENERGY OUTPUT STEPS    20
Info: CROSSTERM ENERGY INCLUDED IN DIHEDRAL
Info: TIMING OUTPUT STEPS    5
Info: QM FORCES ACTIVE
Info: QM SOFTWARE: mopac
Info: QM ATOM CHARGES FROM QM SOFTWARE: MULLIKEN
Info: QM EXECUTABLE PATH: /home/ubuntu/ORCA
Info: QM COLUMN: beta
Info: QM BOND COLUMN: occ
Info: QM WILL DETECT BONDS BETWEEN QM AND MM ATOMS.
Info: QM-MM BOND SCHEME: Charge Shift.
Info: QM Will use PSF charges.
Info: QM BASE DIRECTORY: /dev/shm/NAMD_SM_qmmm
Info: QM CONFIG LINE: PM7 XYZ T=2M 1SCF AUX LET GRAD QMMM THREADS=2
Info: QM CONFIG LINE: decarboxylase
Info: QM POINT CHARGES WILL BE SELECTED EVERY 1 STEPS.
Info: QM Point Charge Switching: ON.
Info: QM Point Charge SCHEME: none.
Info: QM executions per node: 1
Info: COLLECTIVE VARIABLES CALCULATION REQUESTED
Info: COLLECTIVE VARIABLES CONFIGURATION   ./setup/colvars_9.conf
Info: LANGEVIN DYNAMICS ACTIVE
Info: LANGEVIN TEMPERATURE   300
Info: LANGEVIN USING BBK INTEGRATOR
Info: LANGEVIN DAMPING COEFFICIENT IS 200 INVERSE PS
Info: LANGEVIN DYNAMICS APPLIED TO HYDROGENS
Info: PARTICLE MESH EWALD (PME) ACTIVE
Info: PME TOLERANCE               1e-05
Info: PME EWALD COEFFICIENT       0.192342
Info: PME INTERPOLATION ORDER     4
Info: PME GRID DIMENSIONS         80 80 80
Info: PME MAXIMUM GRID SPACING    1
Info: FULL ELECTROSTATIC EVALUATION FREQUENCY      1
Info: USING VERLET I (r-RESPA) MTS SCHEME.
Info: C1 SPLITTING OF LONG RANGE ELECTROSTATICS
Info: PLACING ATOMS IN PATCHES BY HYDROGEN GROUPS
Info: RANDOM NUMBER SEED     35030
Info: USE HYDROGEN BONDS?    NO
Info: COORDINATE PDB         decarboxylase.0.pdb
Info: STRUCTURE FILE         decarboxylase.0.psf
Info: PARAMETER file: CHARMM format!
Info: PARAMETERS             ./toppar/par_all36_prot.prm
Info: PARAMETERS             ./toppar/par_all36_cgenff.prm
Info: PARAMETERS             ./toppar/par_all36_na.prm
Info: PARAMETERS             ./toppar/par_all36_carb.prm
Info: PARAMETERS             ./toppar/par_all36_lipid.prm
Info: PARAMETERS             ./toppar/toppar_water_ions_namd.str
Info: PARAMETERS             ./toppar/ligand.str
Info: USING ARITHMETIC MEAN TO COMBINE L-J SIGMA PARAMETERS
Info: BINARY COORDINATES     ./setup/image_9.coor
Info: SKIPPING rtf SECTION IN STREAM FILE
Info: SKIPPING rtf SECTION IN STREAM FILE
Info: SUMMARY OF PARAMETERS:
Info: 912 BONDS
Info: 2656 ANGLES
Info: 6453 DIHEDRAL
Info: 190 IMPROPER
Info: 6 CROSSTERM
Info: 350 VDW
Info: 6 VDW_PAIRS
Info: 0 NBTHOLE_PAIRS
Info: Using the following PDB file for QM parameters: decarboxylase.0.pdb
Info: Number of QM atoms (excluding Dummy atoms): 35
Info: We found 3 QM-MM bonds.
Info: 1) Group ID: 1 ; Group size: 35 atoms ; Total PSF charge: -1
Info: MM-QM pair: 973:975 -> Value (distance or ratio): 1.09 (QM Group 0 ID 1)
Info: MM-QM pair: 1005:1007 -> Value (distance or ratio): 1.09 (QM Group 0 ID 1)
Info: MM-QM pair: 3293:3294 -> Value (distance or ratio): 0.99 (QM Group 0 ID 1)
Info: STRUCTURE SUMMARY:
Info: 48323 ATOMS
Info: 33339 BONDS
Info: 21050 ANGLES
Info: 8790 DIHEDRALS
Info: 563 IMPROPERS
Info: 213 CROSSTERMS
Info: 0 EXCLUSIONS
Info: 144969 DEGREES OF FREEDOM
Info: 16663 HYDROGEN GROUPS
Info: 4 ATOMS IN LARGEST HYDROGEN GROUP
Info: 16663 MIGRATION GROUPS
Info: 4 ATOMS IN LARGEST MIGRATION GROUP
Info: TOTAL MASS = 294061 amu
Info: TOTAL CHARGE = 1 e
Info: MASS DENSITY = 1.03243 g/cm^3
Info: ATOM DENSITY = 0.102169 atoms/A^3
Info: The QM region will remove 33 bonds, 52 angles, 61 dihedrals, 4 impropers and 0 crossterms.
Info: ADDED 63077 IMPLICIT EXCLUSIONS
Info: NONBONDED TABLE R-SQUARED SPACING: 0.0625
Info: NONBONDED TABLE SIZE: 769 POINTS
Info: REMOVING COM VELOCITY 0.00485397 -0.0167093 0.016789
TCL: Running for 5 steps
Info: List of ranks running QM simulations: 0.
Info: NAMD 2.12 for Linux-x86_64-MPI
Info: Please visit http://www.ks.uiuc.edu/Research/namd/
Info: for updates, documentation, and support information.
Info: Please cite Phillips et al., J. Comp. Chem. 26:1781-1802 (2005)
Info: in all publications reporting results obtained with NAMD.
Info: Based on Charm++/Converse 60800 for mpi-linux-x86_64
Info: Built Mon Mar 12 11:43:07 CDT 2018 by melomcr on amsterdam.ks.uiuc.edu
Info: 1 NAMD  2.12  Linux-x86_64-MPI  1    hanoi.ks.uiuc.edu  melomcr
Info: Running on 1 processors, 1 nodes, 1 physical nodes.
Info: CPU topology information available.
Info: Charm++/Converse parallel runtime startup completed at 0.0217786 s
Info: 488.508 MB of memory in use based on /proc/self/stat
Info: Configuration file is string_sequential.tcl
Info: Working in the current directory /Scr/rcbernardi-tmp/Work/OMPdecarboxylase/Marcelo/QMMM_String_eABF_Tutorial/String_eABF
TCL: Suspending until startup complete.
Info: EXTENDED SYSTEM FILE   ./setup/image_9.xsc
Info: SIMULATION PARAMETERS:
Info: TIMESTEP               0.5
Info: NUMBER OF STEPS        0
Info: STEPS PER CYCLE        1
Info: PERIODIC CELL BASIS 1  77.9134 0 0
Info: PERIODIC CELL BASIS 2  0 77.9134 0
Info: PERIODIC CELL BASIS 3  0 0 77.9134
Info: PERIODIC CELL CENTER   0 0 0
Info: FIRST LDB TIMESTEP     1
Info: LAST LDB TIMESTEP     -1
Info: HOM BACKGROUND SCALING 1
Info: PME BACKGROUND SCALING 1
Info: MIN ATOMS PER PATCH    40
Info: INITIAL TEMPERATURE    300
Info: CENTER OF MASS MOVING INITIALLY? NO
Info: DIELECTRIC             1
Info: EXCLUDE                SCALED ONE-FOUR
Info: 1-4 ELECTROSTATICS SCALED BY 1
Info: MODIFIED 1-4 VDW PARAMETERS WILL BE USED
Info: NO DCD TRAJECTORY OUTPUT
Info: NO EXTENDED SYSTEM TRAJECTORY OUTPUT
Info: NO VELOCITY DCD OUTPUT
Info: NO FORCE DCD OUTPUT
Info: OUTPUT FILENAME        ./output/9/decarb.job0000
Info: BINARY OUTPUT FILES WILL BE USED
Info: RESTART FILENAME       ./output/9/decarb.job0000.restart
Info: RESTART FREQUENCY      100
Info: BINARY RESTART FILES WILL BE USED
Info: SWITCHING ACTIVE
Info: SWITCHING ON           12
Info: SWITCHING OFF          14
Info: PAIRLIST DISTANCE      15
Info: PAIRLIST SHRINK RATE   0.01
Info: PAIRLIST GROW RATE     0.01
Info: PAIRLIST TRIGGER       0.3
Info: PAIRLISTS PER CYCLE    2
Info: PAIRLISTS ENABLED
Info: MARGIN                 0
Info: HYDROGEN GROUP CUTOFF  2.5
Info: PATCH DIMENSION        17.5
Info: ENERGY OUTPUT STEPS    20
Info: CROSSTERM ENERGY INCLUDED IN DIHEDRAL
Info: TIMING OUTPUT STEPS    5
Info: QM FORCES ACTIVE
Info: QM SOFTWARE: mopac
Info: QM ATOM CHARGES FROM QM SOFTWARE: MULLIKEN
Info: QM EXECUTABLE PATH: /home/melomcr/Projects_melomcr/Programs/MOPAC_GPU/MOPAC2016.exe
Info: QM COLUMN: beta
Info: QM BOND COLUMN: occ
Info: QM WILL DETECT BONDS BETWEEN QM AND MM ATOMS.
Info: QM-MM BOND SCHEME: Charge Shift.
Info: QM Will use PSF charges.
Info: QM BASE DIRECTORY: /dev/shm/NAMD_SM_qmmm
Info: QM CONFIG LINE: PM7 XYZ T=2M 1SCF AUX LET GRAD QMMM THREADS=2
Info: QM CONFIG LINE: decarboxylase
Info: QM POINT CHARGES WILL BE SELECTED EVERY 1 STEPS.
Info: QM Point Charge Switching: ON.
Info: QM Point Charge SCHEME: none.
Info: QM executions per node: 1
Info: COLLECTIVE VARIABLES CALCULATION REQUESTED
Info: COLLECTIVE VARIABLES CONFIGURATION   ./setup/colvars_9.conf
Info: LANGEVIN DYNAMICS ACTIVE
Info: LANGEVIN TEMPERATURE   300
Info: LANGEVIN USING BBK INTEGRATOR
Info: LANGEVIN DAMPING COEFFICIENT IS 200 INVERSE PS
Info: LANGEVIN DYNAMICS APPLIED TO HYDROGENS
Info: PARTICLE MESH EWALD (PME) ACTIVE
Info: PME TOLERANCE               1e-05
Info: PME EWALD COEFFICIENT       0.192342
Info: PME INTERPOLATION ORDER     4
Info: PME GRID DIMENSIONS         80 80 80
Info: PME MAXIMUM GRID SPACING    1
Info: FULL ELECTROSTATIC EVALUATION FREQUENCY      1
Info: USING VERLET I (r-RESPA) MTS SCHEME.
Info: C1 SPLITTING OF LONG RANGE ELECTROSTATICS
Info: PLACING ATOMS IN PATCHES BY HYDROGEN GROUPS
Info: RANDOM NUMBER SEED     70803
Info: USE HYDROGEN BONDS?    NO
Info: COORDINATE PDB         decarboxylase.0.pdb
Info: STRUCTURE FILE         decarboxylase.0.psf
Info: PARAMETER file: CHARMM format!
Info: PARAMETERS             ./toppar/par_all36_prot.prm
Info: PARAMETERS             ./toppar/par_all36_cgenff.prm
Info: PARAMETERS             ./toppar/par_all36_na.prm
Info: PARAMETERS             ./toppar/par_all36_carb.prm
Info: PARAMETERS             ./toppar/par_all36_lipid.prm
Info: PARAMETERS             ./toppar/toppar_water_ions_namd.str
Info: PARAMETERS             ./toppar/ligand.str
Info: USING ARITHMETIC MEAN TO COMBINE L-J SIGMA PARAMETERS
Info: BINARY COORDINATES     ./setup/image_9.coor
Info: SKIPPING rtf SECTION IN STREAM FILE
Info: SKIPPING rtf SECTION IN STREAM FILE
Info: SUMMARY OF PARAMETERS:
Info: 912 BONDS
Info: 2656 ANGLES
Info: 6453 DIHEDRAL
Info: 190 IMPROPER
Info: 6 CROSSTERM
Info: 350 VDW
Info: 6 VDW_PAIRS
Info: 0 NBTHOLE_PAIRS
Info: Using the following PDB file for QM parameters: decarboxylase.0.pdb
Info: Number of QM atoms (excluding Dummy atoms): 35
Info: We found 3 QM-MM bonds.
Info: 1) Group ID: 1 ; Group size: 35 atoms ; Total PSF charge: -1
Info: MM-QM pair: 973:975 -> Value (distance or ratio): 1.09 (QM Group 0 ID 1)
Info: MM-QM pair: 1005:1007 -> Value (distance or ratio): 1.09 (QM Group 0 ID 1)
Info: MM-QM pair: 3293:3294 -> Value (distance or ratio): 0.99 (QM Group 0 ID 1)
Info: STRUCTURE SUMMARY:
Info: 48323 ATOMS
Info: 33339 BONDS
Info: 21050 ANGLES
Info: 8790 DIHEDRALS
Info: 563 IMPROPERS
Info: 213 CROSSTERMS
Info: 0 EXCLUSIONS
Info: 144969 DEGREES OF FREEDOM
Info: 16663 HYDROGEN GROUPS
Info: 4 ATOMS IN LARGEST HYDROGEN GROUP
Info: 16663 MIGRATION GROUPS
Info: 4 ATOMS IN LARGEST MIGRATION GROUP
Info: TOTAL MASS = 294061 amu
Info: TOTAL CHARGE = 1 e
Info: MASS DENSITY = 1.03243 g/cm^3
Info: ATOM DENSITY = 0.102169 atoms/A^3
Info: The QM region will remove 33 bonds, 52 angles, 61 dihedrals, 4 impropers and 0 crossterms.
Info: ADDED 63077 IMPLICIT EXCLUSIONS
Info: NONBONDED TABLE R-SQUARED SPACING: 0.0625
Info: NONBONDED TABLE SIZE: 769 POINTS
Info: REMOVING COM VELOCITY -0.0193939 -0.0593192 -0.0222853
TCL: Running for 5 steps
Info: List of ranks running QM simulations: 0.
ETITLE: TS BOND ANGLE DIHED IMPRP ELECT VDW BOUNDARY MISC KINETIC TOTAL TEMP POTENTIAL TOTAL3 TEMPAVG PRESSURE GPRESSURE VOLUME PRESSAVG GPRESSAVG
ENERGY: 0 15676.7854 10211.6636 1914.5618 115.4088 -195260.5847 17407.5888 0.0000 -58.6558 43085.6453 -106907.5868 299.1216 -149993.2321 -106812.0100 299.1216 -1175.4145 -1203.2357 472972.7199 -1175.4145 -1203.2357
TCL: Writing to files with basename ./output/9/decarb.job0000.drift0000.iter0000.
TCL: Running for 5 steps
TCL: Writing to files with basename ./output/9/decarb.job0000.drift0001.iter0000.
TCL: Running for 5 steps
TCL: Writing to files with basename ./output/9/decarb.job0000.drift0002.iter0000.
TCL: Running for 5 steps
ETITLE: TS BOND ANGLE DIHED IMPRP ELECT VDW BOUNDARY MISC KINETIC TOTAL TEMP POTENTIAL TOTAL3 TEMPAVG PRESSURE GPRESSURE VOLUME PRESSAVG GPRESSAVG
ENERGY: 20 15548.4659 10165.4670 1912.3299 113.2865 -195306.2509 17419.5126 0.0000 -45.1233 43256.8407 -106935.4717 300.3102 -150192.3124 -106876.0110 300.5837 -1108.9557 -1171.8392 472972.7199 -1089.0150 -1186.6295
TCL: Writing to files with basename ./output/9/decarb.job0000.drift0003.iter0000.
TCL: Running for 5 steps
ETITLE: TS BOND ANGLE DIHED IMPRP ELECT VDW BOUNDARY MISC KINETIC TOTAL TEMP POTENTIAL TOTAL3 TEMPAVG PRESSURE GPRESSURE VOLUME PRESSAVG GPRESSAVG
ENERGY: 20 15676.7854 10211.6636 1914.5618 115.4088 -195260.5847 17407.5888 0.0000 -58.6558 43085.6453 -106907.5868 299.1216 -149993.2321 -106812.0100 299.1216 -1175.4145 -1203.2357 472972.7199 -1175.4145 -1203.2357
TCL: Writing to files with basename ./output/9/decarb.job0000.drift0004.iter0000.
TCL: Running for 5 steps
TCL: Running for 5 steps
TCL: Running for 5 steps
ETITLE: TS BOND ANGLE DIHED IMPRP ELECT VDW BOUNDARY MISC KINETIC TOTAL TEMP POTENTIAL TOTAL3 TEMPAVG PRESSURE GPRESSURE VOLUME PRESSAVG GPRESSAVG
ENERGY: 40 15637.0780 10013.9164 1915.2937 106.8622 -195062.4293 17433.1049 0.0000 -55.1769 43051.9774 -106959.3736 298.8879 -150011.3510 -106927.3366 300.6093 -1388.1182 -1063.6316 472972.7199 -997.0398 -1123.8240
TCL: Running for 5 steps
ETITLE: TS BOND ANGLE DIHED IMPRP ELECT VDW BOUNDARY MISC KINETIC TOTAL TEMP POTENTIAL TOTAL3 TEMPAVG PRESSURE GPRESSURE VOLUME PRESSAVG GPRESSAVG
ENERGY: 40 15637.0780 10013.9164 1915.2937 106.8622 -195062.4293 17433.1049 0.0000 -55.1683 43051.9774 -106959.3650 298.8879 -150011.3424 -106858.0916 298.8879 -1394.9052 -1064.6517 472972.7199 -1394.9052 -1064.6517
TCL: Running for 5 steps
TCL: Running for 5 steps
TCL: Running for 5 steps
ETITLE: TS BOND ANGLE DIHED IMPRP ELECT VDW BOUNDARY MISC KINETIC TOTAL TEMP POTENTIAL TOTAL3 TEMPAVG PRESSURE GPRESSURE VOLUME PRESSAVG GPRESSAVG
ENERGY: 60 15559.9531 10184.3096 1918.1090 108.2889 -195064.9130 17380.4258 0.0000 -82.9236 43354.8017 -106641.9485 300.9903 -149996.7502 -106535.8621 301.5380 -1213.3368 -1139.2808 472972.7199 -1212.8076 -1071.8088
TCL: Running for 5 steps
ETITLE: TS BOND ANGLE DIHED IMPRP ELECT VDW BOUNDARY MISC KINETIC TOTAL TEMP POTENTIAL TOTAL3 TEMPAVG PRESSURE GPRESSURE VOLUME PRESSAVG GPRESSAVG
ENERGY: 60 15559.9531 10184.3096 1918.1090 108.2889 -195064.9130 17380.4258 0.0000 -82.7231 43354.8017 -106641.7481 300.9903 -149996.5498 -106545.8374 300.9903 -1212.4190 -1137.7537 472972.7199 -1212.4190 -1137.7537
TCL: Running for 5 steps
TCL: Running for 5 steps
TCL: Running for 5 steps
ETITLE: TS BOND ANGLE DIHED IMPRP ELECT VDW BOUNDARY MISC KINETIC TOTAL TEMP POTENTIAL TOTAL3 TEMPAVG PRESSURE GPRESSURE VOLUME PRESSAVG GPRESSAVG
ENERGY: 80 15477.5212 9995.6144 1933.4956 116.6981 -194937.0475 17326.5374 0.0000 -42.4076 43414.9953 -106714.5930 301.4082 -150129.5882 -106574.1238 300.5039 -1046.5129 -1174.4953 472972.7199 -1294.0927 -1194.1224
TCL: Running for 5 steps
ETITLE: TS BOND ANGLE DIHED IMPRP ELECT VDW BOUNDARY MISC KINETIC TOTAL TEMP POTENTIAL TOTAL3 TEMPAVG PRESSURE GPRESSURE VOLUME PRESSAVG GPRESSAVG
ENERGY: 80 15477.5212 9995.6144 1933.4956 116.6981 -194937.0475 17326.5374 0.0000 -41.3194 43414.9953 -106713.5048 301.4082 -150128.5001 -106615.3011 301.4082 -1042.7167 -1171.2265 472972.7199 -1042.7167 -1171.2265
TCL: Running for 5 steps
TCL: Running for 5 steps
TCL: Running for 5 steps
ETITLE: TS BOND ANGLE DIHED IMPRP ELECT VDW BOUNDARY MISC KINETIC TOTAL TEMP POTENTIAL TOTAL3 TEMPAVG PRESSURE GPRESSURE VOLUME PRESSAVG GPRESSAVG
ENERGY: 100 15453.3519 10147.7617 1932.2616 117.9957 -195174.0833 17345.6318 0.0000 -152.2159 43141.6019 -107187.6947 299.5101 -150329.2966 -107078.3744 298.8594 -1242.5277 -1222.0492 472972.7199 -1153.1507 -1210.8760
TCL: Running for 5 steps
ETITLE: TS BOND ANGLE DIHED IMPRP ELECT VDW BOUNDARY MISC KINETIC TOTAL TEMP POTENTIAL TOTAL3 TEMPAVG PRESSURE GPRESSURE VOLUME PRESSAVG GPRESSAVG
ENERGY: 100 15453.3519 10147.7617 1932.2616 117.9957 -195174.0833 17345.6318 0.0000 -149.5630 43141.6019 -107185.0417 299.5101 -150326.6436 -107084.7511 299.5101 -1242.4656 -1219.3828 472972.7199 -1242.4656 -1219.3828
TCL: Running for 5 steps
TCL: Running for 5 steps
TCL: Running for 5 steps
ETITLE: TS BOND ANGLE DIHED IMPRP ELECT VDW BOUNDARY MISC KINETIC TOTAL TEMP POTENTIAL TOTAL3 TEMPAVG PRESSURE GPRESSURE VOLUME PRESSAVG GPRESSAVG
ENERGY: 120 15518.0312 9953.3545 1926.7108 107.3281 -194872.9901 17363.3378 0.0000 -70.7187 43270.8066 -106804.1398 300.4071 -150074.9465 -106669.3342 299.4337 -1146.3324 -1162.3119 472972.7199 -1169.0791 -1186.5676
TCL: Running for 5 steps
ETITLE: TS BOND ANGLE DIHED IMPRP ELECT VDW BOUNDARY MISC KINETIC TOTAL TEMP POTENTIAL TOTAL3 TEMPAVG PRESSURE GPRESSURE VOLUME PRESSAVG GPRESSAVG
ENERGY: 120 15518.0312 9953.3545 1926.7108 107.3281 -194872.9901 17363.3378 0.0000 -68.8265 43270.8066 -106802.2477 300.4071 -150073.0543 -106716.0945 300.4071 -1142.4413 -1157.0482 472972.7199 -1142.4413 -1157.0482
TCL: Running for 5 steps
TCL: Running for 5 steps
TCL: Running for 5 steps
ETITLE: TS BOND ANGLE DIHED IMPRP ELECT VDW BOUNDARY MISC KINETIC TOTAL TEMP POTENTIAL TOTAL3 TEMPAVG PRESSURE GPRESSURE VOLUME PRESSAVG GPRESSAVG
ENERGY: 140 15576.1250 10090.2772 1908.5534 108.4419 -195104.9502 17401.5488 0.0000 -137.9134 43023.4176 -107134.4997 298.6896 -150157.9174 -107058.6248 299.9442 -1037.0879 -1173.2778 472972.7199 -1144.7319 -1153.5465
TCL: Running for 5 steps
ETITLE: TS BOND ANGLE DIHED IMPRP ELECT VDW BOUNDARY MISC KINETIC TOTAL TEMP POTENTIAL TOTAL3 TEMPAVG PRESSURE GPRESSURE VOLUME PRESSAVG GPRESSAVG
ENERGY: 140 15576.1250 10090.2772 1908.5534 108.4419 -195104.9502 17401.5488 0.0000 -136.2270 43023.4176 -107132.8134 298.6896 -150156.2310 -107033.8799 298.6896 -1040.2631 -1176.0103 472972.7199 -1040.2631 -1176.0103
TCL: Running for 5 steps
TCL: Running for 5 steps
TCL: Running for 5 steps
ETITLE: TS BOND ANGLE DIHED IMPRP ELECT VDW BOUNDARY MISC KINETIC TOTAL TEMP POTENTIAL TOTAL3 TEMPAVG PRESSURE GPRESSURE VOLUME PRESSAVG GPRESSAVG
ENERGY: 160 15607.3622 10013.3042 1905.5867 111.6082 -194976.7448 17319.5294 0.0000 -68.2712 43190.2532 -106897.3721 299.8479 -150087.6253 -106792.8583 299.7730 -1032.5749 -1214.2418 472972.7199 -1182.6839 -1219.2216
TCL: Running for 5 steps
ETITLE: TS BOND ANGLE DIHED IMPRP ELECT VDW BOUNDARY MISC KINETIC TOTAL TEMP POTENTIAL TOTAL3 TEMPAVG PRESSURE GPRESSURE VOLUME PRESSAVG GPRESSAVG
ENERGY: 160 15607.3622 10013.3042 1905.5867 111.6082 -194976.7448 17319.5294 0.0000 -66.6653 43190.2532 -106895.7662 299.8479 -150086.0194 -106806.2349 299.8479 -1032.3370 -1216.2101 472972.7199 -1032.3370 -1216.2101
TCL: Running for 5 steps
TCL: Running for 5 steps
TCL: Running for 5 steps
ETITLE: TS BOND ANGLE DIHED IMPRP ELECT VDW BOUNDARY MISC KINETIC TOTAL TEMP POTENTIAL TOTAL3 TEMPAVG PRESSURE GPRESSURE VOLUME PRESSAVG GPRESSAVG
ENERGY: 180 15602.9727 10040.8077 1915.9017 105.9643 -194986.6618 17295.4182 0.0000 -55.8222 43388.5724 -106692.8471 301.2247 -150081.4195 -106662.4008 301.0759 -1063.4044 -1138.7796 472972.7199 -1207.4156 -1166.4550
TCL: Running for 5 steps
ETITLE: TS BOND ANGLE DIHED IMPRP ELECT VDW BOUNDARY MISC KINETIC TOTAL TEMP POTENTIAL TOTAL3 TEMPAVG PRESSURE GPRESSURE VOLUME PRESSAVG GPRESSAVG
ENERGY: 180 15602.9727 10040.8077 1915.9017 105.9643 -194986.6618 17295.4182 0.0000 -54.6298 43388.5724 -106691.6547 301.2247 -150080.2271 -106601.1675 301.2247 -1070.2186 -1140.9994 472972.7199 -1070.2186 -1140.9994
TCL: Running for 5 steps
TCL: Running for 5 steps
TCL: Running for 5 steps
ETITLE: TS BOND ANGLE DIHED IMPRP ELECT VDW BOUNDARY MISC KINETIC TOTAL TEMP POTENTIAL TOTAL3 TEMPAVG PRESSURE GPRESSURE VOLUME PRESSAVG GPRESSAVG
ENERGY: 200 15758.8611 10137.3565 1903.2312 106.6282 -195186.3836 17321.3022 0.0000 -70.2934 43109.6562 -106919.6416 299.2883 -150029.2978 -106818.5549 299.9148 -1180.9223 -1199.6176 472972.7199 -1378.5568 -1156.5018
TCL: Running for 5 steps
ETITLE: TS BOND ANGLE DIHED IMPRP ELECT VDW BOUNDARY MISC KINETIC TOTAL TEMP POTENTIAL TOTAL3 TEMPAVG PRESSURE GPRESSURE VOLUME PRESSAVG GPRESSAVG
ENERGY: 200 15758.8611 10137.3565 1903.2312 106.6282 -195186.3836 17321.3022 0.0000 -69.5488 43109.6562 -106918.8970 299.2883 -150028.5532 -106824.3984 299.2883 -1181.7097 -1204.1919 472972.7199 -1181.7097 -1204.1919
TCL: Running for 5 steps
TCL: Running for 5 steps
TCL: Running for 5 steps
ETITLE: TS BOND ANGLE DIHED IMPRP ELECT VDW BOUNDARY MISC KINETIC TOTAL TEMP POTENTIAL TOTAL3 TEMPAVG PRESSURE GPRESSURE VOLUME PRESSAVG GPRESSAVG
ENERGY: 220 15705.7507 10111.9719 1914.8629 114.9711 -195497.9592 17407.1407 0.0000 -54.7121 43035.5901 -107262.3839 298.7741 -150297.9740 -107213.6845 299.8823 -1559.9213 -1176.6378 472972.7199 -1040.8556 -1161.0651
TCL: Running for 5 steps
ETITLE: TS BOND ANGLE DIHED IMPRP ELECT VDW BOUNDARY MISC KINETIC TOTAL TEMP POTENTIAL TOTAL3 TEMPAVG PRESSURE GPRESSURE VOLUME PRESSAVG GPRESSAVG
ENERGY: 220 15705.7507 10111.9719 1914.8629 114.9711 -195497.9592 17407.1407 0.0000 -54.1781 43035.5901 -107261.8498 298.7741 -150297.4399 -107155.9343 298.7741 -1565.9909 -1175.3476 472972.7199 -1565.9909 -1175.3476
TCL: Writing to files with basename ./output/9/decarb.job0000.image0009.iter0000.
TCL: Running for 5 steps
TCL: Writing to files with basename ./output/9/decarb.job0000.drift0000.iter0001.
TCL: Running for 5 steps
TCL: Writing to files with basename ./output/9/decarb.job0000.drift0001.iter0001.
TCL: Running for 5 steps
ETITLE: TS BOND ANGLE DIHED IMPRP ELECT VDW BOUNDARY MISC KINETIC TOTAL TEMP POTENTIAL TOTAL3 TEMPAVG PRESSURE GPRESSURE VOLUME PRESSAVG GPRESSAVG
ENERGY: 240 15624.7331 9951.4486 1918.1060 109.5830 -195354.1207 17411.0990 0.0000 -57.8506 43104.3453 -107292.6563 299.2515 -150397.0016 -107267.1249 299.6454 -1183.9771 -1190.6496 472972.7199 -1342.7667 -1179.7062
TCL: Writing to files with basename ./output/9/decarb.job0000.drift0002.iter0001.
TCL: Running for 5 steps
ETITLE: TS BOND ANGLE DIHED IMPRP ELECT VDW BOUNDARY MISC KINETIC TOTAL TEMP POTENTIAL TOTAL3 TEMPAVG PRESSURE GPRESSURE VOLUME PRESSAVG GPRESSAVG
ENERGY: 240 15677.4747 10036.3597 1918.2225 112.7041 -195510.0651 17411.0277 0.0000 -80.5852 43049.2895 -107385.5722 298.8692 -150434.8617 -107277.8052 298.8692 -1578.9428 -1196.3101 472972.7199 -1578.9428 -1196.3101
TCL: Writing to files with basename ./output/9/decarb.job0000.drift0003.iter0001.
TCL: Running for 5 steps
TCL: Writing to files with basename ./output/9/decarb.job0000.drift0004.iter0001.
TCL: Running for 5 steps
TCL: Running for 5 steps
ETITLE: TS BOND ANGLE DIHED IMPRP ELECT VDW BOUNDARY MISC KINETIC TOTAL TEMP POTENTIAL TOTAL3 TEMPAVG PRESSURE GPRESSURE VOLUME PRESSAVG GPRESSAVG
ENERGY: 260 15344.8712 10092.1683 1914.2785 104.9400 -195171.0395 17387.2472 0.0000 -96.5631 43344.3755 -107079.7218 300.9179 -150424.0973 -107018.5898 300.2865 -859.8454 -1166.0232 472972.7199 -1023.4641 -1171.8265
TCL: Running for 5 steps
ETITLE: TS BOND ANGLE DIHED IMPRP ELECT VDW BOUNDARY MISC KINETIC TOTAL TEMP POTENTIAL TOTAL3 TEMPAVG PRESSURE GPRESSURE VOLUME PRESSAVG GPRESSAVG
ENERGY: 260 15344.8712 10092.1683 1914.2785 104.9400 -195171.0395 17387.2472 0.0000 -96.5629 43344.3755 -107079.7217 300.9179 -150424.0972 -106989.3929 300.9179 -862.7058 -1169.1181 472972.7199 -862.7058 -1169.1181
TCL: Running for 5 steps
TCL: Running for 5 steps
TCL: Running for 5 steps
ETITLE: TS BOND ANGLE DIHED IMPRP ELECT VDW BOUNDARY MISC KINETIC TOTAL TEMP POTENTIAL TOTAL3 TEMPAVG PRESSURE GPRESSURE VOLUME PRESSAVG GPRESSAVG
ENERGY: 280 15580.0067 10195.7398 1924.7494 119.0058 -195337.5881 17495.5596 0.0000 20.9104 43003.0180 -106998.5985 298.5480 -150001.6165 -106892.6531 299.5097 -760.0016 -1063.6317 472972.7199 -1106.8834 -1149.5945
TCL: Running for 5 steps
ETITLE: TS BOND ANGLE DIHED IMPRP ELECT VDW BOUNDARY MISC KINETIC TOTAL TEMP POTENTIAL TOTAL3 TEMPAVG PRESSURE GPRESSURE VOLUME PRESSAVG GPRESSAVG
ENERGY: 280 15580.0067 10195.7398 1924.7494 119.0058 -195337.5881 17495.5596 0.0000 20.9275 43003.0180 -106998.5814 298.5480 -150001.5994 -106911.2364 298.5480 -758.1922 -1063.5989 472972.7199 -758.1922 -1063.5989
TCL: Running for 5 steps
TCL: Running for 5 steps
TCL: Running for 5 steps
ETITLE: TS BOND ANGLE DIHED IMPRP ELECT VDW BOUNDARY MISC KINETIC TOTAL TEMP POTENTIAL TOTAL3 TEMPAVG PRESSURE GPRESSURE VOLUME PRESSAVG GPRESSAVG
ENERGY: 300 15415.2348 10047.1727 1922.5158 127.6891 -195142.5852 17603.1516 0.0000 -78.5739 42999.6012 -107105.7940 298.5243 -150105.3951 -107054.5628 299.3960 -639.6646 -999.6881 472972.7199 -1141.3551 -1018.0929
TCL: Running for 5 steps
ETITLE: TS BOND ANGLE DIHED IMPRP ELECT VDW BOUNDARY MISC KINETIC TOTAL TEMP POTENTIAL TOTAL3 TEMPAVG PRESSURE GPRESSURE VOLUME PRESSAVG GPRESSAVG
ENERGY: 300 15415.2348 10047.1727 1922.5158 127.6891 -195142.5852 17603.1516 0.0000 -78.4580 42999.6012 -107105.6781 298.5243 -150105.2792 -107009.1269 298.5243 -644.1744 -1003.9721 472972.7199 -644.1744 -1003.9721
TCL: Running for 5 steps
TCL: Running for 5 steps
TCL: Running for 5 steps
ETITLE: TS BOND ANGLE DIHED IMPRP ELECT VDW BOUNDARY MISC KINETIC TOTAL TEMP POTENTIAL TOTAL3 TEMPAVG PRESSURE GPRESSURE VOLUME PRESSAVG GPRESSAVG
ENERGY: 320 15731.2421 10208.0215 1909.8746 113.6332 -195543.9545 17607.0401 0.0000 -102.4283 43379.9650 -106696.6063 301.1650 -150076.5713 -106610.0502 299.8292 -1228.1955 -1086.5254 472972.7199 -1208.8226 -1034.6587
TCL: Running for 5 steps
ETITLE: TS BOND ANGLE DIHED IMPRP ELECT VDW BOUNDARY MISC KINETIC TOTAL TEMP POTENTIAL TOTAL3 TEMPAVG PRESSURE GPRESSURE VOLUME PRESSAVG GPRESSAVG
ENERGY: 320 15731.2421 10208.0215 1909.8746 113.6332 -195543.9545 17607.0401 0.0000 -101.9280 43379.9650 -106696.1060 301.1650 -150076.0710 -106611.5049 301.1650 -1228.2854 -1085.5824 472972.7199 -1228.2854 -1085.5824
TCL: Running for 5 steps
TCL: Running for 5 steps
TCL: Running for 5 steps
ETITLE: TS BOND ANGLE DIHED IMPRP ELECT VDW BOUNDARY MISC KINETIC TOTAL TEMP POTENTIAL TOTAL3 TEMPAVG PRESSURE GPRESSURE VOLUME PRESSAVG GPRESSAVG
ENERGY: 340 15663.2959 10002.1585 1907.0847 116.2965 -195207.6862 17504.8598 0.0000 -146.1672 43100.2360 -107059.9221 299.2229 -150160.1582 -106991.6197 299.7915 -1444.5963 -1116.0000 472972.7199 -1072.7531 -1090.7903
TCL: Running for 5 steps
ETITLE: TS BOND ANGLE DIHED IMPRP ELECT VDW BOUNDARY MISC KINETIC TOTAL TEMP POTENTIAL TOTAL3 TEMPAVG PRESSURE GPRESSURE VOLUME PRESSAVG GPRESSAVG
ENERGY: 340 15663.2959 10002.1585 1907.0847 116.2965 -195207.6862 17504.8598 0.0000 -144.8508 43100.2360 -107058.6057 299.2229 -150158.8418 -106956.6735 299.2229 -1448.7688 -1120.0251 472972.7199 -1448.7688 -1120.0251
TCL: Running for 5 steps
TCL: Running for 5 steps
TCL: Running for 5 steps
ETITLE: TS BOND ANGLE DIHED IMPRP ELECT VDW BOUNDARY MISC KINETIC TOTAL TEMP POTENTIAL TOTAL3 TEMPAVG PRESSURE GPRESSURE VOLUME PRESSAVG GPRESSAVG
ENERGY: 360 15871.0170 10105.4908 1906.9842 116.2017 -195538.3528 17505.9686 0.0000 -97.9248 43342.2761 -106788.3391 300.9033 -150130.6152 -106706.1893 299.9033 -1624.0107 -1072.5235 472972.7199 -922.3438 -1060.8073
TCL: Running for 5 steps
ETITLE: TS BOND ANGLE DIHED IMPRP ELECT VDW BOUNDARY MISC KINETIC TOTAL TEMP POTENTIAL TOTAL3 TEMPAVG PRESSURE GPRESSURE VOLUME PRESSAVG GPRESSAVG
ENERGY: 360 15871.0170 10105.4908 1906.9842 116.2017 -195538.3528 17505.9686 0.0000 -96.8031 43342.2761 -106787.2175 300.9033 -150129.4936 -106700.7785 300.9033 -1625.3646 -1070.5590 472972.7199 -1625.3646 -1070.5590
TCL: Running for 5 steps
TCL: Running for 5 steps
TCL: Running for 5 steps
ETITLE: TS BOND ANGLE DIHED IMPRP ELECT VDW BOUNDARY MISC KINETIC TOTAL TEMP POTENTIAL TOTAL3 TEMPAVG PRESSURE GPRESSURE VOLUME PRESSAVG GPRESSAVG
ENERGY: 380 15698.8684 10199.4017 1921.3840 113.2778 -195316.8758 17408.0534 0.0000 -121.5352 43084.7591 -107012.6666 299.1155 -150097.4257 -106866.3402 299.4250 -1300.7612 -1116.4302 472972.7199 -1033.5056 -1068.2490
TCL: Running for 5 steps
ETITLE: TS BOND ANGLE DIHED IMPRP ELECT VDW BOUNDARY MISC KINETIC TOTAL TEMP POTENTIAL TOTAL3 TEMPAVG PRESSURE GPRESSURE VOLUME PRESSAVG GPRESSAVG
ENERGY: 380 15698.8684 10199.4017 1921.3840 113.2778 -195316.8758 17408.0534 0.0000 -119.8640 43084.7591 -107010.9954 299.1155 -150095.7545 -106917.8919 299.1155 -1296.4530 -1117.2928 472972.7199 -1296.4530 -1117.2928
TCL: Running for 5 steps
TCL: Running for 5 steps
TCL: Running for 5 steps
ETITLE: TS BOND ANGLE DIHED IMPRP ELECT VDW BOUNDARY MISC KINETIC TOTAL TEMP POTENTIAL TOTAL3 TEMPAVG PRESSURE GPRESSURE VOLUME PRESSAVG GPRESSAVG
ENERGY: 400 15602.2974 10057.5807 1926.4386 126.4268 -195479.6186 17440.0861 0.0000 -110.9442 43174.3760 -107263.3572 299.7377 -150437.7333 -107160.8658 299.5298 -1374.0513 -1136.8647 472972.7199 -1165.1692 -1165.8339
TCL: Running for 5 steps
