Info: SIMULATION PARAMETERS:
Info: TIMESTEP               0.5
Info: NUMBER OF STEPS        0
Info: STEPS PER CYCLE        1
Info: PERIODIC CELL BASIS 1  78.0108 0 0
Info: PERIODIC CELL BASIS 2  0 78.0108 0
Info: PERIODIC CELL BASIS 3  0 0 78.0108
Info: PERIODIC CELL CENTER   0 0 0
Info: FIRST LDB TIMESTEP     1
Info: LAST LDB TIMESTEP     -1
Info: HOM BACKGROUND SCALING 1
Info: PME BACKGROUND SCALING 1
Info: MIN ATOMS PER PATCH    40
Info: INITIAL TEMPERATURE    300
Info: CENTER OF MASS MOVING INITIALLY? NO
Info: DIELECTRIC             1
Info: EXCLUDE                SCALED ONE-FOUR
Info: 1-4 ELECTROSTATICS SCALED BY 1
Info: MODIFIED 1-4 VDW PARAMETERS WILL BE USED
Info: NO DCD TRAJECTORY OUTPUT
Info: NO EXTENDED SYSTEM TRAJECTORY OUTPUT
Info: NO VELOCITY DCD OUTPUT
Info: NO FORCE DCD OUTPUT
Info: OUTPUT FILENAME        ./output/5/decarb.job0000
Info: BINARY OUTPUT FILES WILL BE USED
Info: RESTART FILENAME       ./output/5/decarb.job0000.restart
Info: RESTART FREQUENCY      100
Info: BINARY RESTART FILES WILL BE USED
Info: SWITCHING ACTIVE
Info: SWITCHING ON           12
Info: SWITCHING OFF          14
Info: PAIRLIST DISTANCE      15
Info: PAIRLIST SHRINK RATE   0.01
Info: PAIRLIST GROW RATE     0.01
Info: PAIRLIST TRIGGER       0.3
Info: PAIRLISTS PER CYCLE    2
Info: PAIRLISTS ENABLED
Info: MARGIN                 0
Info: HYDROGEN GROUP CUTOFF  2.5
Info: PATCH DIMENSION        17.5
Info: ENERGY OUTPUT STEPS    100
Info: CROSSTERM ENERGY INCLUDED IN DIHEDRAL
Info: TIMING OUTPUT STEPS    100
Info: QM FORCES ACTIVE
Info: QM SOFTWARE: mopac
Info: QM ATOM CHARGES FROM QM SOFTWARE: MULLIKEN
Info: QM EXECUTABLE PATH: /home/melomcr/Projects_melomcr/Programs/MOPAC_GPU/MOPAC2016.exe
Info: QM COLUMN: beta
Info: QM BOND COLUMN: occ
Info: QM WILL DETECT BONDS BETWEEN QM AND MM ATOMS.
Info: QM-MM BOND SCHEME: Charge Shift.
Info: QM Will use PSF charges.
Info: QM BASE DIRECTORY: /dev/shm/NAMD_SM_qmmm
Info: QM CONFIG LINE: PM7 XYZ T=2M 1SCF AUX LET GRAD QMMM THREADS=2
Info: QM CONFIG LINE: decarboxylase
Info: QM POINT CHARGES WILL BE SELECTED EVERY 1 STEPS.
Info: QM Point Charge Switching: ON.
Info: QM Point Charge SCHEME: none.
Info: QM executions per node: 1
Info: COLLECTIVE VARIABLES CALCULATION REQUESTED
Info: COLLECTIVE VARIABLES CONFIGURATION   ./setup/colvars_5.conf
Info: LANGEVIN DYNAMICS ACTIVE
Info: LANGEVIN TEMPERATURE   300
Info: LANGEVIN USING BBK INTEGRATOR
Info: LANGEVIN DAMPING COEFFICIENT IS 200 INVERSE PS
Info: LANGEVIN DYNAMICS APPLIED TO HYDROGENS
Info: PARTICLE MESH EWALD (PME) ACTIVE
Info: PME TOLERANCE               1e-05
Info: PME EWALD COEFFICIENT       0.192342
Info: PME INTERPOLATION ORDER     4
Info: PME GRID DIMENSIONS         80 80 80
Info: PME MAXIMUM GRID SPACING    1
Info: FULL ELECTROSTATIC EVALUATION FREQUENCY      1
Info: USING VERLET I (r-RESPA) MTS SCHEME.
Info: C1 SPLITTING OF LONG RANGE ELECTROSTATICS
Info: PLACING ATOMS IN PATCHES BY HYDROGEN GROUPS
Info: RANDOM NUMBER SEED     84327
Info: USE HYDROGEN BONDS?    NO
Info: COORDINATE PDB         decarboxylase.0.pdb
Info: STRUCTURE FILE         decarboxylase.0.psf
Info: PARAMETER file: CHARMM format!
Info: PARAMETERS             ./toppar/par_all36_prot.prm
Info: PARAMETERS             ./toppar/par_all36_cgenff.prm
Info: PARAMETERS             ./toppar/par_all36_na.prm
Info: PARAMETERS             ./toppar/par_all36_carb.prm
Info: PARAMETERS             ./toppar/par_all36_lipid.prm
Info: PARAMETERS             ./toppar/toppar_water_ions_namd.str
Info: PARAMETERS             ./toppar/ligand.str
Info: USING ARITHMETIC MEAN TO COMBINE L-J SIGMA PARAMETERS
Info: BINARY COORDINATES     ./setup/image_5.coor
Info: SKIPPING rtf SECTION IN STREAM FILE
Info: SKIPPING rtf SECTION IN STREAM FILE
Info: SUMMARY OF PARAMETERS:
Info: 912 BONDS
Info: 2656 ANGLES
Info: 6453 DIHEDRAL
Info: 190 IMPROPER
Info: 6 CROSSTERM
Info: 350 VDW
Info: 6 VDW_PAIRS
Info: 0 NBTHOLE_PAIRS
Info: Using the following PDB file for QM parameters: decarboxylase.0.pdb
Info: Number of QM atoms (excluding Dummy atoms): 35
Info: We found 2 QM-MM bonds.
Info: 1) Group ID: 1 ; Group size: 35 atoms ; Total PSF charge: -1
Info: MM-QM pair: 1005:1007 -> Value (distance or ratio): 1.09 (QM Group 0 ID 1)
Info: MM-QM pair: 3303:3304 -> Value (distance or ratio): 0.99 (QM Group 0 ID 1)
Info: STRUCTURE SUMMARY:
Info: 48341 ATOMS
Info: 33354 BONDS
Info: 21065 ANGLES
Info: 8802 DIHEDRALS
Info: 566 IMPROPERS
Info: 213 CROSSTERMS
Info: 0 EXCLUSIONS
Info: 145023 DEGREES OF FREEDOM
Info: 16669 HYDROGEN GROUPS
Info: 4 ATOMS IN LARGEST HYDROGEN GROUP
Info: 16669 MIGRATION GROUPS
Info: 4 ATOMS IN LARGEST MIGRATION GROUP
Info: TOTAL MASS = 294152 amu
Info: TOTAL CHARGE = 0.999003 e
Info: MASS DENSITY = 1.02889 g/cm^3
Info: ATOM DENSITY = 0.101824 atoms/A^3
Info: The QM region will remove 33 bonds, 52 angles, 61 dihedrals, 4 impropers and 0 crossterms.
Info: ADDED 63124 IMPLICIT EXCLUSIONS
Info: NONBONDED TABLE R-SQUARED SPACING: 0.0625
Info: NONBONDED TABLE SIZE: 769 POINTS
Info: REMOVING COM VELOCITY 0.0377277 0.00770133 -0.0574662
TCL: Running for 5 steps
Info: List of ranks running QM simulations: 0.
ETITLE: TS BOND ANGLE DIHED IMPRP ELECT VDW BOUNDARY MISC KINETIC TOTAL TEMP POTENTIAL TOTAL3 TEMPAVG PRESSURE GPRESSURE VOLUME PRESSAVG GPRESSAVG
ENERGY: 0 652.0093 1906.2737 1931.4814 125.5595 -174885.8429 15385.1646 0.0000 -287.6658 43034.8719 -112138.1484 298.6579 -155173.0203 -112091.2576 298.6579 23489.6136 411.4208 474748.4077 23489.6136 411.4208
TCL: Writing to files with basename ./output/5/decarb.job0000.drift0000.iter0000.
TCL: Running for 5 steps
TCL: Writing to files with basename ./output/5/decarb.job0000.drift0001.iter0000.
TCL: Running for 5 steps
TCL: Writing to files with basename ./output/5/decarb.job0000.drift0002.iter0000.
TCL: Running for 5 steps
TCL: Writing to files with basename ./output/5/decarb.job0000.drift0003.iter0000.
TCL: Running for 5 steps
TCL: Writing to files with basename ./output/5/decarb.job0000.drift0004.iter0000.
TCL: Running for 5 steps
TCL: Running for 5 steps
TCL: Running for 5 steps
TCL: Running for 5 steps
TCL: Running for 5 steps
TCL: Running for 5 steps
TCL: Running for 5 steps
TCL: Running for 5 steps
TCL: Running for 5 steps
TCL: Running for 5 steps
TCL: Running for 5 steps
TCL: Running for 5 steps
TCL: Running for 5 steps
TCL: Running for 5 steps
TCL: Running for 5 steps
ETITLE: TS BOND ANGLE DIHED IMPRP ELECT VDW BOUNDARY MISC KINETIC TOTAL TEMP POTENTIAL TOTAL3 TEMPAVG PRESSURE GPRESSURE VOLUME PRESSAVG GPRESSAVG
ENERGY: 100 15424.8256 9642.6248 1928.4886 119.0781 -192415.9824 15840.2333 0.0000 -358.5476 43375.3910 -106443.8886 301.0211 -149819.2796 -106332.5794 295.9555 -1736.2866 -1802.7946 474748.4077 1568.7866 -1436.7005
TCL: Running for 5 steps
ETITLE: TS BOND ANGLE DIHED IMPRP ELECT VDW BOUNDARY MISC KINETIC TOTAL TEMP POTENTIAL TOTAL3 TEMPAVG PRESSURE GPRESSURE VOLUME PRESSAVG GPRESSAVG
ENERGY: 100 15424.8256 9642.6248 1928.4886 119.0781 -192415.9824 15840.2333 0.0000 -358.4251 43375.3910 -106443.7661 301.0211 -149819.1571 -106357.2967 301.0211 -1734.1259 -1802.0677 474748.4077 -1734.1259 -1802.0677
TCL: Running for 5 steps
TCL: Running for 5 steps
TCL: Running for 5 steps
TCL: Running for 5 steps
TCL: Running for 5 steps
TCL: Running for 5 steps
TCL: Running for 5 steps
TCL: Running for 5 steps
TCL: Running for 5 steps
TCL: Running for 5 steps
TCL: Running for 5 steps
TCL: Running for 5 steps
TCL: Running for 5 steps
TCL: Running for 5 steps
TCL: Running for 5 steps
TCL: Running for 5 steps
TCL: Running for 5 steps
TCL: Running for 5 steps
TCL: Running for 5 steps
ETITLE: TS BOND ANGLE DIHED IMPRP ELECT VDW BOUNDARY MISC KINETIC TOTAL TEMP POTENTIAL TOTAL3 TEMPAVG PRESSURE GPRESSURE VOLUME PRESSAVG GPRESSAVG
ENERGY: 200 15612.2167 9738.3785 1934.7027 119.5083 -193406.6129 16355.7573 0.0000 -330.2245 43126.0341 -106850.2396 299.2906 -149976.2737 -106715.1647 299.8586 -1961.2946 -1580.7043 474748.4077 -1770.8820 -1764.5697
TCL: Running for 5 steps
ETITLE: TS BOND ANGLE DIHED IMPRP ELECT VDW BOUNDARY MISC KINETIC TOTAL TEMP POTENTIAL TOTAL3 TEMPAVG PRESSURE GPRESSURE VOLUME PRESSAVG GPRESSAVG
ENERGY: 200 15612.2167 9738.3785 1934.7027 119.5083 -193406.6129 16355.7573 0.0000 -330.0753 43126.0341 -106850.0905 299.2906 -149976.1246 -106754.2843 299.2906 -1957.7307 -1578.2217 474748.4077 -1957.7307 -1578.2217
TCL: Running for 5 steps
TCL: Running for 5 steps
TCL: Running for 5 steps
TCL: Running for 5 steps
TCL: Writing to files with basename ./output/5/decarb.job0000.image0005.iter0000.
TCL: Running for 5 steps
TCL: Writing to files with basename ./output/5/decarb.job0000.drift0000.iter0001.
TCL: Running for 5 steps
TCL: Writing to files with basename ./output/5/decarb.job0000.drift0001.iter0001.
TCL: Running for 5 steps
TCL: Writing to files with basename ./output/5/decarb.job0000.drift0002.iter0001.
TCL: Running for 5 steps
TCL: Writing to files with basename ./output/5/decarb.job0000.drift0003.iter0001.
TCL: Running for 5 steps
TCL: Writing to files with basename ./output/5/decarb.job0000.drift0004.iter0001.
TCL: Running for 5 steps
TCL: Running for 5 steps
TCL: Running for 5 steps
TCL: Running for 5 steps
TCL: Running for 5 steps
TCL: Running for 5 steps
TCL: Running for 5 steps
TCL: Running for 5 steps
TCL: Running for 5 steps
TCL: Running for 5 steps
ETITLE: TS BOND ANGLE DIHED IMPRP ELECT VDW BOUNDARY MISC KINETIC TOTAL TEMP POTENTIAL TOTAL3 TEMPAVG PRESSURE GPRESSURE VOLUME PRESSAVG GPRESSAVG
ENERGY: 300 15414.4803 10003.2474 1915.9616 129.4470 -193488.6700 16358.3828 0.0000 -340.5324 43137.8774 -106869.8059 299.3728 -150007.6833 -106689.6863 299.3265 -1426.5392 -1714.3948 474748.4077 -1596.9664 -1607.8620
TCL: Running for 5 steps
ETITLE: TS BOND ANGLE DIHED IMPRP ELECT VDW BOUNDARY MISC KINETIC TOTAL TEMP POTENTIAL TOTAL3 TEMPAVG PRESSURE GPRESSURE VOLUME PRESSAVG GPRESSAVG
ENERGY: 300 15414.4803 10003.2474 1915.9616 129.4470 -193488.6700 16358.3828 0.0000 -340.5085 43137.8774 -106869.7820 299.3728 -150007.6593 -106782.4660 299.3728 -1417.5317 -1712.5299 474748.4077 -1417.5317 -1712.5299
TCL: Running for 5 steps
TCL: Running for 5 steps
TCL: Running for 5 steps
TCL: Running for 5 steps
TCL: Running for 5 steps
TCL: Running for 5 steps
TCL: Running for 5 steps
TCL: Running for 5 steps
TCL: Running for 5 steps
TCL: Running for 5 steps
TCL: Running for 5 steps
TCL: Running for 5 steps
TCL: Running for 5 steps
TCL: Running for 5 steps
TCL: Running for 5 steps
TCL: Running for 5 steps
TCL: Running for 5 steps
TCL: Running for 5 steps
TCL: Running for 5 steps
ETITLE: TS BOND ANGLE DIHED IMPRP ELECT VDW BOUNDARY MISC KINETIC TOTAL TEMP POTENTIAL TOTAL3 TEMPAVG PRESSURE GPRESSURE VOLUME PRESSAVG GPRESSAVG
ENERGY: 400 15453.5649 9686.1581 1924.5333 119.1195 -193573.5367 16608.3352 0.0000 -226.4600 43450.5248 -106557.7607 301.5425 -150008.2855 -106414.5469 300.3624 -1318.7358 -1449.4641 474748.4077 -1493.1710 -1493.1929
TCL: Running for 5 steps
ETITLE: TS BOND ANGLE DIHED IMPRP ELECT VDW BOUNDARY MISC KINETIC TOTAL TEMP POTENTIAL TOTAL3 TEMPAVG PRESSURE GPRESSURE VOLUME PRESSAVG GPRESSAVG
ENERGY: 400 15453.5649 9686.1581 1924.5333 119.1195 -193573.5367 16608.3352 0.0000 -225.7823 43450.5248 -106557.0831 301.5425 -150007.6078 -106466.3404 301.5425 -1315.1946 -1449.5844 474748.4077 -1315.1946 -1449.5844
TCL: Running for 5 steps
TCL: Running for 5 steps
TCL: Running for 5 steps
TCL: Running for 5 steps
TCL: Running for 5 steps
TCL: Running for 5 steps
TCL: Running for 5 steps
TCL: Running for 5 steps
TCL: Running for 5 steps
TCL: Writing to files with basename ./output/5/decarb.job0000.image0005.iter0001.
TCL: Running for 5 steps
TCL: Writing to files with basename ./output/5/decarb.job0000.drift0000.iter0002.
TCL: Running for 5 steps
TCL: Writing to files with basename ./output/5/decarb.job0000.drift0001.iter0002.
TCL: Running for 5 steps
TCL: Writing to files with basename ./output/5/decarb.job0000.drift0002.iter0002.
TCL: Running for 5 steps
TCL: Writing to files with basename ./output/5/decarb.job0000.drift0003.iter0002.
TCL: Running for 5 steps
TCL: Writing to files with basename ./output/5/decarb.job0000.drift0004.iter0002.
TCL: Running for 5 steps
TCL: Running for 5 steps
TCL: Running for 5 steps
TCL: Running for 5 steps
TCL: Running for 5 steps
ETITLE: TS BOND ANGLE DIHED IMPRP ELECT VDW BOUNDARY MISC KINETIC TOTAL TEMP POTENTIAL TOTAL3 TEMPAVG PRESSURE GPRESSURE VOLUME PRESSAVG GPRESSAVG
ENERGY: 500 15613.9923 9880.5111 1911.4625 123.1889 -194237.1996 16781.6794 0.0000 -318.9122 43430.1362 -106815.1415 301.4010 -150245.2776 -106762.7661 300.2937 -1803.2233 -1441.0138 474748.4077 -1536.6476 -1526.6389
TCL: Running for 5 steps
ETITLE: TS BOND ANGLE DIHED IMPRP ELECT VDW BOUNDARY MISC KINETIC TOTAL TEMP POTENTIAL TOTAL3 TEMPAVG PRESSURE GPRESSURE VOLUME PRESSAVG GPRESSAVG
ENERGY: 500 15613.9923 9880.5111 1911.4625 123.1889 -194237.1996 16781.6794 0.0000 -318.9093 43430.1362 -106815.1386 301.4010 -150245.2747 -106726.2284 301.4010 -1806.7910 -1443.9378 474748.4077 -1806.7910 -1443.9378
TCL: Running for 5 steps
TCL: Running for 5 steps
TCL: Running for 5 steps
TCL: Running for 5 steps
TCL: Running for 5 steps
TCL: Running for 5 steps
TCL: Running for 5 steps
TCL: Running for 5 steps
TCL: Running for 5 steps
TCL: Running for 5 steps
TCL: Running for 5 steps
TCL: Running for 5 steps
TCL: Running for 5 steps
TCL: Running for 5 steps
TCL: Running for 5 steps
TCL: Running for 5 steps
TCL: Running for 5 steps
TCL: Running for 5 steps
TCL: Running for 5 steps
ETITLE: TS BOND ANGLE DIHED IMPRP ELECT VDW BOUNDARY MISC KINETIC TOTAL TEMP POTENTIAL TOTAL3 TEMPAVG PRESSURE GPRESSURE VOLUME PRESSAVG GPRESSAVG
ENERGY: 600 15564.1973 10004.9095 1934.6428 119.7588 -194472.9433 16914.6409 0.0000 -239.6002 43150.6205 -107023.7738 299.4612 -150174.3943 -106960.8017 299.7102 -1623.4413 -1381.9928 474748.4077 -1335.8101 -1339.1823
TCL: Running for 5 steps
ETITLE: TS BOND ANGLE DIHED IMPRP ELECT VDW BOUNDARY MISC KINETIC TOTAL TEMP POTENTIAL TOTAL3 TEMPAVG PRESSURE GPRESSURE VOLUME PRESSAVG GPRESSAVG
ENERGY: 600 15564.1973 10004.9095 1934.6428 119.7588 -194472.9433 16914.6409 0.0000 -239.4233 43150.6205 -107023.5969 299.4612 -150174.2174 -106927.1772 299.4612 -1627.0692 -1384.9531 474748.4077 -1627.0692 -1384.9531
TCL: Running for 5 steps
TCL: Running for 5 steps
TCL: Running for 5 steps
TCL: Running for 5 steps
TCL: Running for 5 steps
TCL: Running for 5 steps
TCL: Running for 5 steps
TCL: Running for 5 steps
TCL: Running for 5 steps
TCL: Running for 5 steps
TCL: Running for 5 steps
TCL: Running for 5 steps
TCL: Running for 5 steps
TCL: Running for 5 steps
TCL: Writing to files with basename ./output/5/decarb.job0000.image0005.iter0002.
TCL: Running for 5 steps
TCL: Writing to files with basename ./output/5/decarb.job0000.drift0000.iter0003.
TCL: Running for 5 steps
TCL: Writing to files with basename ./output/5/decarb.job0000.drift0001.iter0003.
TCL: Running for 5 steps
TCL: Writing to files with basename ./output/5/decarb.job0000.drift0002.iter0003.
TCL: Running for 5 steps
TCL: Writing to files with basename ./output/5/decarb.job0000.drift0003.iter0003.
TCL: Running for 5 steps
ETITLE: TS BOND ANGLE DIHED IMPRP ELECT VDW BOUNDARY MISC KINETIC TOTAL TEMP POTENTIAL TOTAL3 TEMPAVG PRESSURE GPRESSURE VOLUME PRESSAVG GPRESSAVG
ENERGY: 700 15552.3597 9958.0438 1902.6073 124.1495 -194533.5783 17036.1813 0.0000 -232.8206 43243.2149 -106949.8424 300.1038 -150193.0574 -106881.5892 299.8362 -1451.7421 -1341.7621 474748.4077 -1329.6605 -1348.1816
TCL: Writing to files with basename ./output/5/decarb.job0000.drift0004.iter0003.
TCL: Running for 5 steps
ETITLE: TS BOND ANGLE DIHED IMPRP ELECT VDW BOUNDARY MISC KINETIC TOTAL TEMP POTENTIAL TOTAL3 TEMPAVG PRESSURE GPRESSURE VOLUME PRESSAVG GPRESSAVG
ENERGY: 700 15552.3597 9958.0438 1902.6073 124.1495 -194533.5783 17036.1813 0.0000 -232.8188 43243.2149 -106949.8406 300.1038 -150193.0555 -106855.1947 300.1038 -1454.3076 -1341.1766 474748.4077 -1454.3076 -1341.1766
TCL: Running for 5 steps
TCL: Running for 5 steps
TCL: Running for 5 steps
TCL: Running for 5 steps
TCL: Running for 5 steps
TCL: Running for 5 steps
TCL: Running for 5 steps
TCL: Running for 5 steps
TCL: Running for 5 steps
TCL: Running for 5 steps
TCL: Running for 5 steps
TCL: Running for 5 steps
TCL: Running for 5 steps
TCL: Running for 5 steps
TCL: Running for 5 steps
TCL: Running for 5 steps
TCL: Running for 5 steps
TCL: Running for 5 steps
TCL: Running for 5 steps
ETITLE: TS BOND ANGLE DIHED IMPRP ELECT VDW BOUNDARY MISC KINETIC TOTAL TEMP POTENTIAL TOTAL3 TEMPAVG PRESSURE GPRESSURE VOLUME PRESSAVG GPRESSAVG
ENERGY: 800 15573.7128 9806.4632 1919.4601 112.8117 -194963.7151 17110.6311 0.0000 -158.0675 43048.8283 -107549.8754 298.7548 -150598.7037 -107491.1125 300.6277 -1333.9898 -1418.0856 474748.4077 -1290.7196 -1340.4798
TCL: Running for 5 steps
ETITLE: TS BOND ANGLE DIHED IMPRP ELECT VDW BOUNDARY MISC KINETIC TOTAL TEMP POTENTIAL TOTAL3 TEMPAVG PRESSURE GPRESSURE VOLUME PRESSAVG GPRESSAVG
ENERGY: 800 15573.7128 9806.4632 1919.4601 112.8117 -194963.7151 17110.6311 0.0000 -157.9404 43048.8283 -107549.7483 298.7548 -150598.5766 -107429.8893 298.7548 -1340.1308 -1420.6716 474748.4077 -1340.1308 -1420.6716
TCL: Running for 5 steps
TCL: Running for 5 steps
TCL: Running for 5 steps
TCL: Running for 5 steps
TCL: Running for 5 steps
TCL: Running for 5 steps
TCL: Running for 5 steps
TCL: Running for 5 steps
TCL: Running for 5 steps
TCL: Running for 5 steps
TCL: Running for 5 steps
TCL: Running for 5 steps
TCL: Running for 5 steps
TCL: Running for 5 steps
TCL: Running for 5 steps
TCL: Running for 5 steps
TCL: Running for 5 steps
TCL: Running for 5 steps
TCL: Running for 5 steps
ETITLE: TS BOND ANGLE DIHED IMPRP ELECT VDW BOUNDARY MISC KINETIC TOTAL TEMP POTENTIAL TOTAL3 TEMPAVG PRESSURE GPRESSURE VOLUME PRESSAVG GPRESSAVG
ENERGY: 900 15628.1848 9870.0126 1917.6527 115.8805 -195115.1327 17310.2485 0.0000 -263.9855 42886.3920 -107650.7472 297.6275 -150537.1391 -107591.3083 300.0628 -1462.8299 -1249.2185 474748.4077 -1350.8303 -1314.6345
TCL: Writing to files with basename ./output/5/decarb.job0000.image0005.iter0003.
TCL: Running for 5 steps
ETITLE: TS BOND ANGLE DIHED IMPRP ELECT VDW BOUNDARY MISC KINETIC TOTAL TEMP POTENTIAL TOTAL3 TEMPAVG PRESSURE GPRESSURE VOLUME PRESSAVG GPRESSAVG
ENERGY: 900 15628.1848 9870.0126 1917.6527 115.8805 -195115.1327 17310.2485 0.0000 -265.2663 42886.3920 -107652.0280 297.6275 -150538.4200 -107542.8957 297.6275 -1460.2195 -1241.6392 474748.4077 -1460.2195 -1241.6392
TCL: Writing to files with basename ./output/5/decarb.job0000.drift0000.iter0004.
TCL: Running for 5 steps
TCL: Writing to files with basename ./output/5/decarb.job0000.drift0001.iter0004.
TCL: Running for 5 steps
TCL: Writing to files with basename ./output/5/decarb.job0000.drift0002.iter0004.
TCL: Running for 5 steps
TCL: Writing to files with basename ./output/5/decarb.job0000.drift0003.iter0004.
TCL: Running for 5 steps
TCL: Writing to files with basename ./output/5/decarb.job0000.drift0004.iter0004.
TCL: Running for 5 steps
TCL: Running for 5 steps
TCL: Running for 5 steps
TCL: Running for 5 steps
TCL: Running for 5 steps
TCL: Running for 5 steps
TCL: Running for 5 steps
TCL: Running for 5 steps
TCL: Running for 5 steps
TCL: Running for 5 steps
TCL: Running for 5 steps
TCL: Running for 5 steps
TCL: Running for 5 steps
TCL: Running for 5 steps
TCL: Running for 5 steps
ETITLE: TS BOND ANGLE DIHED IMPRP ELECT VDW BOUNDARY MISC KINETIC TOTAL TEMP POTENTIAL TOTAL3 TEMPAVG PRESSURE GPRESSURE VOLUME PRESSAVG GPRESSAVG
ENERGY: 1000 15599.2523 9877.8069 1893.3960 124.5022 -194795.6010 17117.4894 0.0000 -286.0281 43104.0339 -107365.1484 299.1379 -150469.1824 -107325.4894 299.4239 -1211.3610 -1373.0230 474748.4077 -1277.5098 -1250.9105
TCL: Running for 5 steps
ETITLE: TS BOND ANGLE DIHED IMPRP ELECT VDW BOUNDARY MISC KINETIC TOTAL TEMP POTENTIAL TOTAL3 TEMPAVG PRESSURE GPRESSURE VOLUME PRESSAVG GPRESSAVG
ENERGY: 1000 15599.2523 9877.8069 1893.3960 124.5022 -194795.6010 17117.4894 0.0000 -285.8876 43104.0339 -107365.0079 299.1379 -150469.0418 -107270.4334 299.1379 -1216.9479 -1372.5113 474748.4077 -1216.9479 -1372.5113
TCL: Running for 5 steps
TCL: Running for 5 steps
TCL: Running for 5 steps
TCL: Running for 5 steps
TCL: Running for 5 steps
TCL: Running for 5 steps
TCL: Running for 5 steps
TCL: Running for 5 steps
TCL: Running for 5 steps
TCL: Running for 5 steps
TCL: Running for 5 steps
TCL: Running for 5 steps
TCL: Running for 5 steps
TCL: Running for 5 steps
TCL: Running for 5 steps
TCL: Running for 5 steps
TCL: Running for 5 steps
TCL: Running for 5 steps
TCL: Running for 5 steps
ETITLE: TS BOND ANGLE DIHED IMPRP ELECT VDW BOUNDARY MISC KINETIC TOTAL TEMP POTENTIAL TOTAL3 TEMPAVG PRESSURE GPRESSURE VOLUME PRESSAVG GPRESSAVG
ENERGY: 1100 15690.8932 9786.7564 1906.2959 98.3399 -195323.8016 17448.9326 0.0000 -329.7912 42983.3228 -107739.0519 298.3002 -150722.3747 -107637.0114 299.6837 -1424.0337 -1189.7461 474748.4077 -1200.2183 -1209.2232
TCL: Running for 5 steps
ETITLE: TS BOND ANGLE DIHED IMPRP ELECT VDW BOUNDARY MISC KINETIC TOTAL TEMP POTENTIAL TOTAL3 TEMPAVG PRESSURE GPRESSURE VOLUME PRESSAVG GPRESSAVG
ENERGY: 1100 15690.8932 9786.7564 1906.2959 98.3399 -195323.8016 17448.9326 0.0000 -329.3626 42983.3228 -107738.6233 298.3002 -150721.9461 -107633.0602 298.3002 -1424.2028 -1191.6982 474748.4077 -1424.2028 -1191.6982
TCL: Running for 5 steps
TCL: Running for 5 steps
TCL: Running for 5 steps
TCL: Running for 5 steps
TCL: Writing to files with basename ./output/5/decarb.job0000.image0005.iter0004.
TCL: Running for 5 steps
TCL: Writing to files with basename ./output/5/decarb.job0000.drift0000.iter0005.
TCL: Running for 5 steps
TCL: Writing to files with basename ./output/5/decarb.job0000.drift0001.iter0005.
TCL: Running for 5 steps
TCL: Writing to files with basename ./output/5/decarb.job0000.drift0002.iter0005.
TCL: Running for 5 steps
TCL: Writing to files with basename ./output/5/decarb.job0000.drift0003.iter0005.
TCL: Running for 5 steps
TCL: Writing to files with basename ./output/5/decarb.job0000.drift0004.iter0005.
TCL: Running for 5 steps
TCL: Running for 5 steps
TCL: Running for 5 steps
TCL: Running for 5 steps
TCL: Running for 5 steps
TCL: Running for 5 steps
TCL: Running for 5 steps
TCL: Running for 5 steps
TCL: Running for 5 steps
TCL: Running for 5 steps
ETITLE: TS BOND ANGLE DIHED IMPRP ELECT VDW BOUNDARY MISC KINETIC TOTAL TEMP POTENTIAL TOTAL3 TEMPAVG PRESSURE GPRESSURE VOLUME PRESSAVG GPRESSAVG
ENERGY: 1200 15715.2878 9875.9924 1906.4730 135.6623 -195337.5342 17292.5920 0.0000 -151.2734 43309.6318 -107253.1682 300.5647 -150562.8000 -107157.2462 300.0475 -1656.2333 -1345.6126 474748.4077 -1224.0885 -1278.0644
TCL: Running for 5 steps
ETITLE: TS BOND ANGLE DIHED IMPRP ELECT VDW BOUNDARY MISC KINETIC TOTAL TEMP POTENTIAL TOTAL3 TEMPAVG PRESSURE GPRESSURE VOLUME PRESSAVG GPRESSAVG
ENERGY: 1200 15715.2878 9875.9924 1906.4730 135.6623 -195337.5342 17292.5920 0.0000 -151.2471 43309.6318 -107253.1418 300.5647 -150562.7737 -107161.8063 300.5647 -1655.8006 -1347.0638 474748.4077 -1655.8006 -1347.0638
TCL: Running for 5 steps
TCL: Running for 5 steps
TCL: Running for 5 steps
TCL: Running for 5 steps
TCL: Running for 5 steps
TCL: Running for 5 steps
TCL: Running for 5 steps
TCL: Running for 5 steps
TCL: Running for 5 steps
TCL: Running for 5 steps
TCL: Running for 5 steps
TCL: Running for 5 steps
TCL: Running for 5 steps
TCL: Running for 5 steps
TCL: Running for 5 steps
TCL: Running for 5 steps
TCL: Running for 5 steps
TCL: Running for 5 steps
TCL: Running for 5 steps
ETITLE: TS BOND ANGLE DIHED IMPRP ELECT VDW BOUNDARY MISC KINETIC TOTAL TEMP POTENTIAL TOTAL3 TEMPAVG PRESSURE GPRESSURE VOLUME PRESSAVG GPRESSAVG
ENERGY: 1300 15553.7229 9951.4549 1921.1203 102.6799 -195386.2099 17427.9396 0.0000 -128.4600 43372.5875 -107185.1647 301.0016 -150557.7523 -107103.1115 300.1914 -1071.7233 -1292.8487 474748.4077 -1251.9506 -1253.7662
TCL: Running for 5 steps
ETITLE: TS BOND ANGLE DIHED IMPRP ELECT VDW BOUNDARY MISC KINETIC TOTAL TEMP POTENTIAL TOTAL3 TEMPAVG PRESSURE GPRESSURE VOLUME PRESSAVG GPRESSAVG
ENERGY: 1300 15553.7229 9951.4549 1921.1203 102.6799 -195386.2099 17427.9396 0.0000 -128.1753 43372.5875 -107184.8801 301.0016 -150557.4677 -107095.6590 301.0016 -1072.6165 -1295.2912 474748.4077 -1072.6165 -1295.2912
TCL: Running for 5 steps
TCL: Running for 5 steps
TCL: Running for 5 steps
TCL: Running for 5 steps
TCL: Running for 5 steps
TCL: Running for 5 steps
TCL: Running for 5 steps
TCL: Running for 5 steps
TCL: Running for 5 steps
TCL: Writing to files with basename ./output/5/decarb.job0000.image0005.iter0005.
TCL: Running for 5 steps
TCL: Writing to files with basename ./output/5/decarb.job0000.drift0000.iter0006.
TCL: Running for 5 steps
TCL: Writing to files with basename ./output/5/decarb.job0000.drift0001.iter0006.
TCL: Running for 5 steps
TCL: Writing to files with basename ./output/5/decarb.job0000.drift0002.iter0006.
TCL: Running for 5 steps
TCL: Writing to files with basename ./output/5/decarb.job0000.drift0003.iter0006.
TCL: Running for 5 steps
TCL: Writing to files with basename ./output/5/decarb.job0000.drift0004.iter0006.
TCL: Running for 5 steps
TCL: Running for 5 steps
TCL: Running for 5 steps
TCL: Running for 5 steps
TCL: Running for 5 steps
ETITLE: TS BOND ANGLE DIHED IMPRP ELECT VDW BOUNDARY MISC KINETIC TOTAL TEMP POTENTIAL TOTAL3 TEMPAVG PRESSURE GPRESSURE VOLUME PRESSAVG GPRESSAVG
ENERGY: 1400 15779.5732 10264.5633 1906.6936 120.4196 -195864.2914 17471.9684 0.0000 -184.5840 42932.9657 -107572.6915 297.9507 -150505.6573 -107599.1881 300.5669 -1460.6741 -1348.0230 474748.4077 -1305.9177 -1262.5908
TCL: Running for 5 steps
ETITLE: TS BOND ANGLE DIHED IMPRP ELECT VDW BOUNDARY MISC KINETIC TOTAL TEMP POTENTIAL TOTAL3 TEMPAVG PRESSURE GPRESSURE VOLUME PRESSAVG GPRESSAVG
ENERGY: 1400 15779.5732 10264.5633 1906.6936 120.4196 -195864.2914 17471.9684 0.0000 -184.5806 42932.9657 -107572.6881 297.9507 -150505.6539 -107468.5039 297.9507 -1473.4323 -1347.8495 474748.4077 -1473.4323 -1347.8495
TCL: Running for 5 steps
TCL: Running for 5 steps
TCL: Running for 5 steps
TCL: Running for 5 steps
TCL: Running for 5 steps
TCL: Running for 5 steps
TCL: Running for 5 steps
TCL: Running for 5 steps
TCL: Running for 5 steps
TCL: Running for 5 steps
TCL: Running for 5 steps
TCL: Running for 5 steps
TCL: Running for 5 steps
TCL: Running for 5 steps
TCL: Running for 5 steps
TCL: Running for 5 steps
TCL: Running for 5 steps
TCL: Running for 5 steps
TCL: Running for 5 steps
ETITLE: TS BOND ANGLE DIHED IMPRP ELECT VDW BOUNDARY MISC KINETIC TOTAL TEMP POTENTIAL TOTAL3 TEMPAVG PRESSURE GPRESSURE VOLUME PRESSAVG GPRESSAVG
ENERGY: 1500 15497.9753 10075.7845 1908.1167 122.4263 -195477.8575 17300.5949 0.0000 -221.5719 43123.6814 -107670.8504 299.2742 -150794.5318 -107583.6119 300.0026 -1409.0584 -1382.1974 474748.4077 -1306.6385 -1277.3226
TCL: Running for 5 steps
ETITLE: TS BOND ANGLE DIHED IMPRP ELECT VDW BOUNDARY MISC KINETIC TOTAL TEMP POTENTIAL TOTAL3 TEMPAVG PRESSURE GPRESSURE VOLUME PRESSAVG GPRESSAVG
ENERGY: 1500 15497.9753 10075.7845 1908.1167 122.4263 -195477.8575 17300.5949 0.0000 -221.1186 43123.6814 -107670.3971 299.2742 -150794.0785 -107568.9947 299.2742 -1411.5350 -1384.4682 474748.4077 -1411.5350 -1384.4682
TCL: Running for 5 steps
TCL: Running for 5 steps
TCL: Running for 5 steps
TCL: Running for 5 steps
TCL: Running for 5 steps
TCL: Running for 5 steps
TCL: Running for 5 steps
TCL: Running for 5 steps
TCL: Running for 5 steps
TCL: Running for 5 steps
TCL: Running for 5 steps
TCL: Running for 5 steps
TCL: Running for 5 steps
TCL: Running for 5 steps
TCL: Writing to files with basename ./output/5/decarb.job0000.image0005.iter0006.
TCL: Running for 5 steps
TCL: Writing to files with basename ./output/5/decarb.job0000.drift0000.iter0007.
TCL: Running for 5 steps
TCL: Writing to files with basename ./output/5/decarb.job0000.drift0001.iter0007.
TCL: Running for 5 steps
TCL: Writing to files with basename ./output/5/decarb.job0000.drift0002.iter0007.
TCL: Running for 5 steps
TCL: Writing to files with basename ./output/5/decarb.job0000.drift0003.iter0007.
TCL: Running for 5 steps
ETITLE: TS BOND ANGLE DIHED IMPRP ELECT VDW BOUNDARY MISC KINETIC TOTAL TEMP POTENTIAL TOTAL3 TEMPAVG PRESSURE GPRESSURE VOLUME PRESSAVG GPRESSAVG
ENERGY: 1600 15670.2335 10070.6460 1903.7285 117.1434 -195476.0168 17358.0372 0.0000 -236.6726 43043.8650 -107549.0358 298.7203 -150592.9008 -107508.4120 300.2983 -1542.6146 -1292.5639 474748.4077 -1312.7519 -1306.6481
TCL: Writing to files with basename ./output/5/decarb.job0000.drift0004.iter0007.
TCL: Running for 5 steps
ETITLE: TS BOND ANGLE DIHED IMPRP ELECT VDW BOUNDARY MISC KINETIC TOTAL TEMP POTENTIAL TOTAL3 TEMPAVG PRESSURE GPRESSURE VOLUME PRESSAVG GPRESSAVG
ENERGY: 1600 15670.2335 10070.6460 1903.7285 117.1434 -195476.0168 17358.0372 0.0000 -236.6720 43043.8650 -107549.0352 298.7203 -150592.9002 -107437.7424 298.7203 -1549.5113 -1299.6168 474748.4077 -1549.5113 -1299.6168
TCL: Running for 5 steps
TCL: Running for 5 steps
TCL: Running for 5 steps
TCL: Running for 5 steps
TCL: Running for 5 steps
TCL: Running for 5 steps
TCL: Running for 5 steps
TCL: Running for 5 steps
TCL: Running for 5 steps
TCL: Running for 5 steps
TCL: Running for 5 steps
TCL: Running for 5 steps
TCL: Running for 5 steps
TCL: Running for 5 steps
TCL: Running for 5 steps
TCL: Running for 5 steps
TCL: Running for 5 steps
TCL: Running for 5 steps
TCL: Running for 5 steps
ETITLE: TS BOND ANGLE DIHED IMPRP ELECT VDW BOUNDARY MISC KINETIC TOTAL TEMP POTENTIAL TOTAL3 TEMPAVG PRESSURE GPRESSURE VOLUME PRESSAVG GPRESSAVG
ENERGY: 1700 15463.1851 10151.0559 1899.1574 111.4278 -195862.5407 17527.2182 0.0000 -242.2122 43339.3355 -107613.3730 300.7709 -150952.7085 -107457.7083 300.0927 -1309.6334 -1194.0634 474748.4077 -1256.1046 -1190.3555
TCL: Running for 5 steps
ETITLE: TS BOND ANGLE DIHED IMPRP ELECT VDW BOUNDARY MISC KINETIC TOTAL TEMP POTENTIAL TOTAL3 TEMPAVG PRESSURE GPRESSURE VOLUME PRESSAVG GPRESSAVG
ENERGY: 1700 15463.1851 10151.0559 1899.1574 111.4278 -195862.5407 17527.2182 0.0000 -241.7438 43339.3355 -107612.9047 300.7709 -150952.2402 -107510.2211 300.7709 -1304.7482 -1195.4423 474748.4077 -1304.7482 -1195.4423
TCL: Running for 5 steps
TCL: Running for 5 steps
TCL: Running for 5 steps
TCL: Running for 5 steps
TCL: Running for 5 steps
TCL: Running for 5 steps
TCL: Running for 5 steps
TCL: Running for 5 steps
TCL: Running for 5 steps
TCL: Running for 5 steps
TCL: Running for 5 steps
TCL: Running for 5 steps
TCL: Running for 5 steps
TCL: Running for 5 steps
TCL: Running for 5 steps
TCL: Running for 5 steps
TCL: Running for 5 steps
TCL: Running for 5 steps
TCL: Running for 5 steps
ETITLE: TS BOND ANGLE DIHED IMPRP ELECT VDW BOUNDARY MISC KINETIC TOTAL TEMP POTENTIAL TOTAL3 TEMPAVG PRESSURE GPRESSURE VOLUME PRESSAVG GPRESSAVG
ENERGY: 1800 15546.5938 10003.6016 1905.6670 100.5763 -195291.7043 17299.2172 0.0000 -205.4044 43278.8723 -107362.5806 300.3512 -150641.4529 -107211.2394 299.9374 -1158.1131 -1285.8535 474748.4077 -1196.3211 -1222.9737
TCL: Writing to files with basename ./output/5/decarb.job0000.image0005.iter0007.
TCL: Running for 5 steps
ETITLE: TS BOND ANGLE DIHED IMPRP ELECT VDW BOUNDARY MISC KINETIC TOTAL TEMP POTENTIAL TOTAL3 TEMPAVG PRESSURE GPRESSURE VOLUME PRESSAVG GPRESSAVG
ENERGY: 1800 15546.5938 10003.6016 1905.6670 100.5763 -195291.7043 17299.2172 0.0000 -207.2838 43278.8723 -107364.4599 300.3512 -150643.3323 -107276.9557 300.3512 -1157.0135 -1289.8773 474748.4077 -1157.0135 -1289.8773
TCL: Writing to files with basename ./output/5/decarb.job0000.drift0000.iter0008.
TCL: Running for 5 steps
TCL: Writing to files with basename ./output/5/decarb.job0000.drift0001.iter0008.
TCL: Running for 5 steps
TCL: Writing to files with basename ./output/5/decarb.job0000.drift0002.iter0008.
TCL: Running for 5 steps
TCL: Writing to files with basename ./output/5/decarb.job0000.drift0003.iter0008.
TCL: Running for 5 steps
TCL: Writing to files with basename ./output/5/decarb.job0000.drift0004.iter0008.
TCL: Running for 5 steps
TCL: Running for 5 steps
TCL: Running for 5 steps
TCL: Running for 5 steps
TCL: Running for 5 steps
TCL: Running for 5 steps
TCL: Running for 5 steps
TCL: Running for 5 steps
TCL: Running for 5 steps
TCL: Running for 5 steps
TCL: Running for 5 steps
TCL: Running for 5 steps
TCL: Running for 5 steps
TCL: Running for 5 steps
TCL: Running for 5 steps
ETITLE: TS BOND ANGLE DIHED IMPRP ELECT VDW BOUNDARY MISC KINETIC TOTAL TEMP POTENTIAL TOTAL3 TEMPAVG PRESSURE GPRESSURE VOLUME PRESSAVG GPRESSAVG
ENERGY: 1900 15544.7328 10015.4967 1904.6507 117.9766 -195569.1829 17533.2406 0.0000 -251.6626 43161.4068 -107543.3413 299.5360 -150704.7481 -107401.9130 300.4582 -1192.0615 -1186.6776 474748.4077 -1279.7889 -1281.5099
TCL: Running for 5 steps
ETITLE: TS BOND ANGLE DIHED IMPRP ELECT VDW BOUNDARY MISC KINETIC TOTAL TEMP POTENTIAL TOTAL3 TEMPAVG PRESSURE GPRESSURE VOLUME PRESSAVG GPRESSAVG
ENERGY: 1900 15544.7328 10015.4967 1904.6507 117.9766 -195569.1829 17533.2406 0.0000 -251.5872 43161.4068 -107543.2660 299.5360 -150704.6727 -107447.3338 299.5360 -1187.6012 -1185.5836 474748.4077 -1187.6012 -1185.5836
TCL: Running for 5 steps
TCL: Running for 5 steps
TCL: Running for 5 steps
TCL: Running for 5 steps
TCL: Running for 5 steps
TCL: Running for 5 steps
TCL: Running for 5 steps
TCL: Running for 5 steps
TCL: Running for 5 steps
TCL: Running for 5 steps
TCL: Running for 5 steps
TCL: Running for 5 steps
TCL: Running for 5 steps
TCL: Running for 5 steps
TCL: Running for 5 steps
TCL: Running for 5 steps
TCL: Running for 5 steps
TCL: Running for 5 steps
TCL: Running for 5 steps
ETITLE: TS BOND ANGLE DIHED IMPRP ELECT VDW BOUNDARY MISC KINETIC TOTAL TEMP POTENTIAL TOTAL3 TEMPAVG PRESSURE GPRESSURE VOLUME PRESSAVG GPRESSAVG
ENERGY: 2000 15791.2692 10058.8876 1913.5300 114.0169 -195583.9199 17471.3533 0.0000 -196.6108 43210.6240 -107220.8499 299.8776 -150431.4738 -107102.3630 300.0583 -1456.3797 -1296.5791 474748.4077 -1219.6380 -1217.8634
TCL: Running for 5 steps
